
     RDKit          3D

176182  0  0  0  0  0  0  0  0999 V2000
    2.1553    2.7047    3.7518 C   0  0  0  0  0  0  0  0  0  0  0  0
    1.5689    3.2118    4.9068 C   0  0  0  0  0  0  0  0  0  0  0  0
    0.4694    2.5631    5.4720 C   0  0  0  0  0  0  0  0  0  0  0  0
   -0.0970    3.0304    6.7871 C   0  0  0  0  0  0  0  0  0  0  0  0
   -0.0401    1.4224    4.8255 C   0  0  0  0  0  0  0  0  0  0  0  0
   -1.0354    0.7327    5.4899 O   0  0  0  0  0  0  0  0  0  0  0  0
   -1.3174   -0.5426    5.0309 C   0  0  0  0  0  0  0  0  0  0  0  0
   -1.7951   -1.4780    5.8564 C   0  0  0  0  0  0  0  0  0  0  0  0
   -2.0407   -1.2823    7.3243 C   0  0  0  0  0  0  0  0  0  0  0  0
   -2.0913   -2.8322    5.3244 C   0  0  0  0  0  0  0  0  0  0  0  0
   -2.3291   -3.7704    6.0851 O   0  0  0  0  0  0  0  0  0  0  0  0
   -2.1060   -3.0449    3.8371 C   0  0  0  0  0  0  0  0  0  0  0  0
   -2.5803   -4.2841    3.4366 N   0  0  0  0  0  0  0  0  0  0  0  0
   -1.6053   -2.0806    3.0381 C   0  0  0  0  0  0  0  0  0  0  0  0
   -1.5898   -2.3436    1.5718 C   0  0  0  0  0  0  0  0  0  0  0  0
   -1.0838   -3.3734    1.1211 O   0  0  0  0  0  0  0  0  0  0  0  0
   -2.3132   -1.4558    0.8018 N   0  0  0  0  0  0  0  0  0  0  0  0
   -2.4789   -1.6989   -0.6473 C   0  0  2  0  0  0  0  0  0  0  0  0
   -2.5884   -0.4396   -1.5471 C   0  0  0  0  0  0  0  0  0  0  0  0
   -2.8138   -0.5630   -2.7464 O   0  0  0  0  0  0  0  0  0  0  0  0
   -2.6453    0.7781   -0.8939 N   0  0  0  0  0  0  0  0  0  0  0  0
   -3.2317    1.9484   -1.5420 C   0  0  2  0  0  0  0  0  0  0  0  0
   -2.4002    2.4691   -2.7389 C   0  0  0  0  0  0  0  0  0  0  0  0
   -3.0632    3.6637   -3.4303 C   0  0  0  0  0  0  0  0  0  0  0  0
   -0.9505    2.7981   -2.3969 C   0  0  0  0  0  0  0  0  0  0  0  0
   -3.5235    3.0616   -0.5053 C   0  0  0  0  0  0  0  0  0  0  0  0
   -2.6202    3.7507   -0.0184 O   0  0  0  0  0  0  0  0  0  0  0  0
   -4.8392    3.3126   -0.1370 N   0  0  0  0  0  0  0  0  0  0  0  0
   -5.3400    4.6184   -0.5259 C   0  0  0  0  0  0  0  0  0  0  0  0
   -6.4864    4.2862   -1.4971 C   0  0  0  0  0  0  0  0  0  0  0  0
   -6.7246    2.7615   -1.3768 C   0  0  0  0  0  0  0  0  0  0  0  0
   -5.9876    2.3994   -0.0979 C   0  0  1  0  0  0  0  0  0  0  0  0
   -5.7580    0.9890    0.5138 C   0  0  0  0  0  0  0  0  0  0  0  0
   -4.6967    0.7457    1.1219 O   0  0  0  0  0  0  0  0  0  0  0  0
   -6.8263    0.0938    0.5966 N   0  0  0  0  0  0  0  0  0  0  0  0
   -6.8123   -0.8625    1.6968 C   0  0  0  0  0  0  0  0  0  0  0  0
   -7.9620    0.0172   -0.3423 C   0  0  0  0  0  0  0  0  0  0  0  0
   -8.6235   -1.3753   -0.4802 C   0  0  0  0  0  0  0  0  0  0  0  0
   -9.7832   -1.5166   -0.0601 O   0  0  0  0  0  0  0  0  0  0  0  0
   -7.9052   -2.4636   -0.9832 N   0  0  0  0  0  0  0  0  0  0  0  0
   -8.5090   -3.7713   -0.7729 C   0  0  0  0  0  0  0  0  0  0  0  0
   -6.8338   -2.4255   -2.0191 C   0  0  1  0  0  0  0  0  0  0  0  0
   -7.3969   -2.4416   -3.4740 C   0  0  0  0  0  0  0  0  0  0  0  0
   -8.2971   -1.2647   -3.8440 C   0  0  0  0  0  0  0  0  0  0  0  0
   -6.2762   -2.5939   -4.5156 C   0  0  0  0  0  0  0  0  0  0  0  0
   -5.7340   -1.4007   -1.7775 C   0  0  0  0  0  0  0  0  0  0  0  0
   -5.7012   -0.3090   -2.3387 O   0  0  0  0  0  0  0  0  0  0  0  0
   -4.9252   -1.7093   -0.7207 O   0  0  0  0  0  0  0  0  0  0  0  0
   -3.7603   -2.5407   -0.9764 C   0  0  2  0  0  0  0  0  0  0  0  0
   -3.9450   -3.7889   -0.1195 C   0  0  0  0  0  0  0  0  0  0  0  0
   -0.9740   -0.8648    3.6180 C   0  0  0  0  0  0  0  0  0  0  0  0
   -0.1311   -0.1549    2.9356 N   0  0  0  0  0  0  0  0  0  0  0  0
    0.4821    0.9378    3.6098 C   0  0  0  0  0  0  0  0  0  0  0  0
    1.6385    1.5618    3.1112 C   0  0  0  0  0  0  0  0  0  0  0  0
    2.4632    1.0147    1.9928 C   0  0  0  0  0  0  0  0  0  0  0  0
    3.6176    1.4014    1.8691 O   0  0  0  0  0  0  0  0  0  0  0  0
    1.9008    0.0694    1.1692 N   0  0  0  0  0  0  0  0  0  0  0  0
    2.6280   -0.4746    0.0154 C   0  0  2  0  0  0  0  0  0  0  0  0
    1.9039   -0.0515   -1.2634 C   0  0  0  0  0  0  0  0  0  0  0  0
    0.7435   -0.4172   -1.4929 O   0  0  0  0  0  0  0  0  0  0  0  0
    2.5335    0.7742   -2.1501 N   0  0  0  0  0  0  0  0  0  0  0  0
    3.7695    1.5719   -1.9723 C   0  0  2  0  0  0  0  0  0  0  0  0
    3.4149    2.8736   -1.1998 C   0  0  0  0  0  0  0  0  0  0  0  0
    4.6506    3.5816   -0.6382 C   0  0  0  0  0  0  0  0  0  0  0  0
    2.5797    3.8785   -2.0021 C   0  0  0  0  0  0  0  0  0  0  0  0
    4.3488    1.8575   -3.3829 C   0  0  0  0  0  0  0  0  0  0  0  0
    3.5911    2.2049   -4.3019 O   0  0  0  0  0  0  0  0  0  0  0  0
    5.6979    1.6882   -3.6199 N   0  0  0  0  0  0  0  0  0  0  0  0
    6.2804    2.2456   -4.8210 C   0  0  0  0  0  0  0  0  0  0  0  0
    7.7206    1.7739   -4.8487 C   0  0  0  0  0  0  0  0  0  0  0  0
    7.7190    0.5257   -3.9735 C   0  0  0  0  0  0  0  0  0  0  0  0
    6.6655    0.8426   -2.9007 C   0  0  1  0  0  0  0  0  0  0  0  0
    7.3904    1.5519   -1.7223 C   0  0  0  0  0  0  0  0  0  0  0  0
    7.4721    2.7838   -1.6891 O   0  0  0  0  0  0  0  0  0  0  0  0
    8.0124    0.7724   -0.7509 N   0  0  0  0  0  0  0  0  0  0  0  0
    8.5007    1.4619    0.4384 C   0  0  0  0  0  0  0  0  0  0  0  0
    8.1180   -0.6940   -0.7580 C   0  0  0  0  0  0  0  0  0  0  0  0
    6.9079   -1.3410   -0.0814 C   0  0  0  0  0  0  0  0  0  0  0  0
    5.8296   -0.7476   -0.1241 O   0  0  0  0  0  0  0  0  0  0  0  0
    7.0439   -2.6168    0.4462 N   0  0  0  0  0  0  0  0  0  0  0  0
    8.0585   -3.5316   -0.0561 C   0  0  0  0  0  0  0  0  0  0  0  0
    6.1436   -3.1374    1.5217 C   0  0  1  0  0  0  0  0  0  0  0  0
    6.3867   -2.5251    2.9305 C   0  0  0  0  0  0  0  0  0  0  0  0
    5.9457   -1.0702    3.1113 C   0  0  0  0  0  0  0  0  0  0  0  0
    7.8617   -2.6615    3.3401 C   0  0  0  0  0  0  0  0  0  0  0  0
    4.6505   -3.3226    1.1498 C   0  0  0  0  0  0  0  0  0  0  0  0
    4.1185   -4.4179    1.0358 O   0  0  0  0  0  0  0  0  0  0  0  0
    4.0307   -2.1428    0.9499 O   0  0  0  0  0  0  0  0  0  0  0  0
    2.8512   -2.0106    0.1027 C   0  0  2  0  0  0  0  0  0  0  0  0
    3.1624   -2.6335   -1.2650 C   0  0  0  0  0  0  0  0  0  0  0  0
    3.0537    3.1824    3.3572 H   0  0  0  0  0  0  0  0  0  0  0  0
    2.0092    4.0840    5.3954 H   0  0  0  0  0  0  0  0  0  0  0  0
    0.1566    2.3107    7.5747 H   0  0  0  0  0  0  0  0  0  0  0  0
   -1.1858    3.1310    6.7173 H   0  0  0  0  0  0  0  0  0  0  0  0
    0.3124    4.0053    7.0754 H   0  0  0  0  0  0  0  0  0  0  0  0
   -3.0643   -1.5724    7.5886 H   0  0  0  0  0  0  0  0  0  0  0  0
   -1.9017   -0.2409    7.6321 H   0  0  0  0  0  0  0  0  0  0  0  0
   -1.3445   -1.8907    7.9103 H   0  0  0  0  0  0  0  0  0  0  0  0
   -2.3174   -4.6235    2.5100 H   0  0  0  0  0  0  0  0  0  0  0  0
   -2.7727   -4.9498    4.1848 H   0  0  0  0  0  0  0  0  0  0  0  0
   -2.8874   -0.7308    1.2276 H   0  0  0  0  0  0  0  0  0  0  0  0
   -1.6093   -2.2669   -1.0066 H   0  0  0  0  0  0  0  0  0  0  0  0
   -2.5358    0.8033    0.1062 H   0  0  0  0  0  0  0  0  0  0  0  0
   -4.1914    1.6145   -1.9528 H   0  0  0  0  0  0  0  0  0  0  0  0
   -2.3593    1.6720   -3.4961 H   0  0  0  0  0  0  0  0  0  0  0  0
   -2.5356    3.9103   -4.3571 H   0  0  0  0  0  0  0  0  0  0  0  0
   -4.1039    3.4261   -3.6869 H   0  0  0  0  0  0  0  0  0  0  0  0
   -3.0531    4.5585   -2.7931 H   0  0  0  0  0  0  0  0  0  0  0  0
   -0.3982    3.0002   -3.3234 H   0  0  0  0  0  0  0  0  0  0  0  0
   -0.4549    1.9619   -1.9002 H   0  0  0  0  0  0  0  0  0  0  0  0
   -0.8580    3.6871   -1.7619 H   0  0  0  0  0  0  0  0  0  0  0  0
   -5.7279    5.1231    0.3687 H   0  0  0  0  0  0  0  0  0  0  0  0
   -4.5802    5.2548   -0.9955 H   0  0  0  0  0  0  0  0  0  0  0  0
   -6.2250    4.5432   -2.5299 H   0  0  0  0  0  0  0  0  0  0  0  0
   -7.3852    4.8523   -1.2375 H   0  0  0  0  0  0  0  0  0  0  0  0
   -7.7951    2.5542   -1.3268 H   0  0  0  0  0  0  0  0  0  0  0  0
   -6.3118    2.2474   -2.2496 H   0  0  0  0  0  0  0  0  0  0  0  0
   -6.6153    2.8258    0.6976 H   0  0  0  0  0  0  0  0  0  0  0  0
   -6.6147   -1.8681    1.3223 H   0  0  0  0  0  0  0  0  0  0  0  0
   -6.0478   -0.6191    2.4419 H   0  0  0  0  0  0  0  0  0  0  0  0
   -7.7812   -0.8456    2.2036 H   0  0  0  0  0  0  0  0  0  0  0  0
   -8.7161    0.6960    0.0695 H   0  0  0  0  0  0  0  0  0  0  0  0
   -7.7026    0.3861   -1.3310 H   0  0  0  0  0  0  0  0  0  0  0  0
   -9.1508   -4.0245   -1.6254 H   0  0  0  0  0  0  0  0  0  0  0  0
   -9.1235   -3.7865    0.1358 H   0  0  0  0  0  0  0  0  0  0  0  0
   -7.7250   -4.5195   -0.6668 H   0  0  0  0  0  0  0  0  0  0  0  0
   -6.3188   -3.3896   -1.9257 H   0  0  0  0  0  0  0  0  0  0  0  0
   -8.0170   -3.3492   -3.5692 H   0  0  0  0  0  0  0  0  0  0  0  0
   -8.6925   -1.3988   -4.8593 H   0  0  0  0  0  0  0  0  0  0  0  0
   -7.7550   -0.3136   -3.8268 H   0  0  0  0  0  0  0  0  0  0  0  0
   -9.1538   -1.1947   -3.1756 H   0  0  0  0  0  0  0  0  0  0  0  0
   -5.7229   -1.6589   -4.6610 H   0  0  0  0  0  0  0  0  0  0  0  0
   -6.7044   -2.8868   -5.4899 H   0  0  0  0  0  0  0  0  0  0  0  0
   -5.5652   -3.3758   -4.2288 H   0  0  0  0  0  0  0  0  0  0  0  0
   -3.7462   -2.8381   -2.0317 H   0  0  0  0  0  0  0  0  0  0  0  0
   -4.8777   -4.3047   -0.3929 H   0  0  0  0  0  0  0  0  0  0  0  0
   -3.1141   -4.4962   -0.2252 H   0  0  0  0  0  0  0  0  0  0  0  0
   -4.0647   -3.5261    0.9376 H   0  0  0  0  0  0  0  0  0  0  0  0
    0.9315   -0.2024    1.3189 H   0  0  0  0  0  0  0  0  0  0  0  0
    3.6063   -0.0025    0.0384 H   0  0  0  0  0  0  0  0  0  0  0  0
    1.9889    0.9849   -2.9829 H   0  0  0  0  0  0  0  0  0  0  0  0
    4.4942    0.9876   -1.4070 H   0  0  0  0  0  0  0  0  0  0  0  0
    2.7971    2.5846   -0.3434 H   0  0  0  0  0  0  0  0  0  0  0  0
    4.3541    4.3729    0.0569 H   0  0  0  0  0  0  0  0  0  0  0  0
    5.2785    2.8860   -0.0814 H   0  0  0  0  0  0  0  0  0  0  0  0
    5.2468    4.0415   -1.4336 H   0  0  0  0  0  0  0  0  0  0  0  0
    3.1713    4.3684   -2.7790 H   0  0  0  0  0  0  0  0  0  0  0  0
    1.7229    3.3927   -2.4676 H   0  0  0  0  0  0  0  0  0  0  0  0
    2.1961    4.6627   -1.3385 H   0  0  0  0  0  0  0  0  0  0  0  0
    6.2337    3.3381   -4.7581 H   0  0  0  0  0  0  0  0  0  0  0  0
    5.7137    1.9130   -5.6989 H   0  0  0  0  0  0  0  0  0  0  0  0
    8.3753    2.5371   -4.4070 H   0  0  0  0  0  0  0  0  0  0  0  0
    8.0876    1.5678   -5.8639 H   0  0  0  0  0  0  0  0  0  0  0  0
    7.4254   -0.3491   -4.5606 H   0  0  0  0  0  0  0  0  0  0  0  0
    8.7198    0.3509   -3.5607 H   0  0  0  0  0  0  0  0  0  0  0  0
    6.1671   -0.0577   -2.5427 H   0  0  0  0  0  0  0  0  0  0  0  0
    7.7684    2.2187    0.7487 H   0  0  0  0  0  0  0  0  0  0  0  0
    8.6531    0.7627    1.2672 H   0  0  0  0  0  0  0  0  0  0  0  0
    9.4478    1.9526    0.1936 H   0  0  0  0  0  0  0  0  0  0  0  0
    9.0386   -0.9664   -0.2346 H   0  0  0  0  0  0  0  0  0  0  0  0
    8.1855   -1.0579   -1.7867 H   0  0  0  0  0  0  0  0  0  0  0  0
    8.3779   -3.2424   -1.0539 H   0  0  0  0  0  0  0  0  0  0  0  0
    7.6397   -4.5386   -0.1347 H   0  0  0  0  0  0  0  0  0  0  0  0
    8.9135   -3.5469    0.6256 H   0  0  0  0  0  0  0  0  0  0  0  0
    6.4628   -4.1806    1.6487 H   0  0  0  0  0  0  0  0  0  0  0  0
    5.8022   -3.1160    3.6411 H   0  0  0  0  0  0  0  0  0  0  0  0
    6.0783   -0.7664    4.1553 H   0  0  0  0  0  0  0  0  0  0  0  0
    4.8937   -0.9378    2.8718 H   0  0  0  0  0  0  0  0  0  0  0  0
    6.5344   -0.3825    2.4984 H   0  0  0  0  0  0  0  0  0  0  0  0
    8.0056   -2.3440    4.3759 H   0  0  0  0  0  0  0  0  0  0  0  0
    8.5054   -2.0365    2.7125 H   0  0  0  0  0  0  0  0  0  0  0  0
    8.2042   -3.6943    3.2609 H   0  0  0  0  0  0  0  0  0  0  0  0
    2.0113   -2.5198    0.5937 H   0  0  0  0  0  0  0  0  0  0  0  0
    3.3244   -3.7099   -1.1958 H   0  0  0  0  0  0  0  0  0  0  0  0
    2.3707   -2.4812   -1.9978 H   0  0  0  0  0  0  0  0  0  0  0  0
    4.0904   -2.2125   -1.6759 H   0  0  0  0  0  0  0  0  0  0  0  0
  1  2  2  0
  2  3  1  0
  3  4  1  0
  3  5  2  0
  5  6  1  0
  6  7  1  0
  7  8  2  0
  8  9  1  0
  8 10  1  0
 10 11  2  0
 10 12  1  0
 12 13  1  0
 12 14  2  0
 14 15  1  0
 15 16  2  0
 15 17  1  0
 17 18  1  0
 18 19  1  0
 19 20  2  0
 19 21  1  0
 21 22  1  0
 22 23  1  0
 23 24  1  0
 23 25  1  0
 22 26  1  0
 26 27  2  0
 26 28  1  0
 28 29  1  0
 29 30  1  0
 30 31  1  0
 31 32  1  0
 32 33  1  0
 33 34  2  0
 33 35  1  0
 35 36  1  0
 35 37  1  0
 37 38  1  0
 38 39  2  0
 38 40  1  0
 40 41  1  0
 40 42  1  0
 42 43  1  0
 43 44  1  0
 43 45  1  0
 42 46  1  0
 46 47  2  0
 46 48  1  0
 48 49  1  0
 49 50  1  0
 14 51  1  0
 51 52  2  0
 52 53  1  0
 53 54  2  0
 54 55  1  0
 55 56  2  0
 55 57  1  0
 57 58  1  0
 58 59  1  0
 59 60  2  0
 59 61  1  0
 61 62  1  0
 62 63  1  0
 63 64  1  0
 63 65  1  0
 62 66  1  0
 66 67  2  0
 66 68  1  0
 68 69  1  0
 69 70  1  0
 70 71  1  0
 71 72  1  0
 72 73  1  0
 73 74  2  0
 73 75  1  0
 75 76  1  0
 75 77  1  0
 77 78  1  0
 78 79  2  0
 78 80  1  0
 80 81  1  0
 80 82  1  0
 82 83  1  0
 83 84  1  0
 83 85  1  0
 82 86  1  0
 86 87  2  0
 86 88  1  0
 88 89  1  0
 89 90  1  0
 54  1  1  0
 89 58  1  0
 53  5  1  0
 72 68  1  0
 51  7  1  0
 49 18  1  0
 32 28  1  0
  1 91  1  0
  2 92  1  0
  4 93  1  0
  4 94  1  0
  4 95  1  0
  9 96  1  0
  9 97  1  0
  9 98  1  0
 13 99  1  0
 13100  1  0
 17101  1  0
 18102  1  6
 21103  1  0
 22104  1  6
 23105  1  0
 24106  1  0
 24107  1  0
 24108  1  0
 25109  1  0
 25110  1  0
 25111  1  0
 29112  1  0
 29113  1  0
 30114  1  0
 30115  1  0
 31116  1  0
 31117  1  0
 32118  1  1
 36119  1  0
 36120  1  0
 36121  1  0
 37122  1  0
 37123  1  0
 41124  1  0
 41125  1  0
 41126  1  0
 42127  1  6
 43128  1  0
 44129  1  0
 44130  1  0
 44131  1  0
 45132  1  0
 45133  1  0
 45134  1  0
 49135  1  6
 50136  1  0
 50137  1  0
 50138  1  0
 57139  1  0
 58140  1  6
 61141  1  0
 62142  1  1
 63143  1  0
 64144  1  0
 64145  1  0
 64146  1  0
 65147  1  0
 65148  1  0
 65149  1  0
 69150  1  0
 69151  1  0
 70152  1  0
 70153  1  0
 71154  1  0
 71155  1  0
 72156  1  1
 76157  1  0
 76158  1  0
 76159  1  0
 77160  1  0
 77161  1  0
 81162  1  0
 81163  1  0
 81164  1  0
 82165  1  1
 83166  1  0
 84167  1  0
 84168  1  0
 84169  1  0
 85170  1  0
 85171  1  0
 85172  1  0
 89173  1  1
 90174  1  0
 90175  1  0
 90176  1  0
M  END
$$$$
