
                    3D
 Schrodinger Suite 2021-1.
 64 69  0  0  1  0            999 V2000
   10.0830   18.5170   15.6640 C   0  0  0  0  0  0
    8.9300   19.8610   13.1940 C   0  0  0  0  0  0
   10.8340   19.3870   14.7730 C   0  0  0  0  0  0
   10.2670   20.0350   13.5800 C   0  0  0  0  0  0
    8.6820   18.3840   15.1820 C   0  0  0  0  0  0
    8.1210   19.0310   13.9920 C   0  0  0  0  0  0
   10.6670   17.8640   16.8820 N   0  0  0  0  0  0
    8.4010   20.5560   11.9970 C   0  0  0  0  0  0
    8.4230   21.6350    9.9940 C   0  0  0  0  0  0
    7.0960   21.5470   10.4960 C   0  0  0  0  0  0
    5.9510   22.1100    9.7540 C   0  0  0  0  0  0
    6.2590   22.7650    8.4860 C   0  0  0  0  0  0
    7.6150   22.8450    8.0050 C   0  0  0  0  0  0
    8.6960   22.2890    8.7350 C   0  0  0  0  0  0
    9.2140   20.9880   10.9860 N   0  0  0  0  0  0
    7.1310   20.8950   11.6950 N   0  0  0  0  0  0
    7.8690   23.5140    6.7530 C   0  0  0  0  0  0
    8.8380   24.1150    4.7620 C   0  0  0  0  0  0
    7.6830   24.9040    5.0530 C   0  0  0  0  0  0
    7.2060   25.9580    4.1670 C   0  0  0  0  0  0
    7.9830   26.1640    2.9600 C   0  0  0  0  0  0
    9.1740   25.3530    2.6560 C   0  0  0  0  0  0
    8.9260   23.2340    5.8760 N   0  0  0  0  0  0
    7.1910   24.4870    6.2190 N   0  0  0  0  0  0
    9.6100   24.3320    3.5400 C   0  0  0  0  0  0
    9.9730   25.5480    1.4380 N   0  0  0  0  0  0
   11.5810   26.2340   -1.0190 N   0  3  0  0  0  0
   11.4950   25.4150    1.2490 C   0  0  0  0  0  0
   11.9420   24.9480   -0.1850 C   0  0  0  0  0  0
   10.1970   26.7970   -0.7220 C   0  0  0  0  0  0
    9.2390   25.7710    0.0390 C   0  0  0  0  0  0
   11.9330   25.2170   -2.1640 C   0  0  0  0  0  0
   10.2440   16.9300   18.0190 C   0  0  0  0  0  0
   11.9810   17.8150   17.4680 C   0  0  0  0  0  0
   11.8760   19.5918   14.9699 H   0  0  0  0  0  0
   10.9209   20.6636   12.9937 H   0  0  0  0  0  0
    7.9807   17.7671   15.7242 H   0  0  0  0  0  0
    7.0862   18.8703   13.7280 H   0  0  0  0  0  0
    4.9523   22.0245   10.1561 H   0  0  0  0  0  0
    5.4654   23.1977    7.8950 H   0  0  0  0  0  0
    9.7091   22.3478    8.3656 H   0  0  0  0  0  0
   10.2093   20.8229   11.0328 H   0  0  0  0  0  0
    6.3259   26.5265    4.4290 H   0  0  0  0  0  0
    7.6930   26.9291    2.2551 H   0  0  0  0  0  0
    9.5863   22.5027    6.0981 H   0  0  0  0  0  0
   10.4796   23.7250    3.3357 H   0  0  0  0  0  0
   12.2937   26.9437   -0.9264 H   0  0  0  0  0  0
   11.8920   24.7247    1.9933 H   0  0  0  0  0  0
   11.9722   26.3665    1.4837 H   0  0  0  0  0  0
   13.0233   24.8105   -0.1934 H   0  0  0  0  0  0
   11.3036   24.1249   -0.5062 H   0  0  0  0  0  0
    9.7256   27.1086   -1.6541 H   0  0  0  0  0  0
   10.2961   27.7067   -0.1297 H   0  0  0  0  0  0
    8.2713   26.2421    0.2113 H   0  0  0  0  0  0
    9.2134   24.8287   -0.5083 H   0  0  0  0  0  0
   11.8199   25.7054   -3.1319 H   0  0  0  0  0  0
   12.9625   24.8787   -2.0464 H   0  0  0  0  0  0
   11.2611   24.3605   -2.1091 H   0  0  0  0  0  0
   11.0927   16.7538   18.6800 H   0  0  0  0  0  0
    9.4330   17.3891   18.5843 H   0  0  0  0  0  0
    9.9048   15.9812   17.6033 H   0  0  0  0  0  0
   11.9528   17.2103   18.3744 H   0  0  0  0  0  0
   12.6797   17.3724   16.7581 H   0  0  0  0  0  0
   12.3068   18.8252   17.7158 H   0  0  0  0  0  0
  1  3  2  0  0  0
  1  5  1  0  0  0
  1  7  1  0  0  0
  2  4  2  0  0  0
  2  6  1  0  0  0
  2  8  1  0  0  0
  3  4  1  0  0  0
  3 35  1  0  0  0
  4 36  1  0  0  0
  5  6  2  0  0  0
  5 37  1  0  0  0
  6 38  1  0  0  0
  7 33  1  0  0  0
  7 34  1  0  0  0
  8 15  1  0  0  0
  8 16  2  0  0  0
  9 10  2  0  0  0
  9 14  1  0  0  0
  9 15  1  0  0  0
 10 11  1  0  0  0
 10 16  1  0  0  0
 11 12  2  0  0  0
 11 39  1  0  0  0
 12 13  1  0  0  0
 12 40  1  0  0  0
 13 14  2  0  0  0
 13 17  1  0  0  0
 14 41  1  0  0  0
 15 42  1  0  0  0
 17 23  1  0  0  0
 17 24  2  0  0  0
 18 19  2  0  0  0
 18 23  1  0  0  0
 18 25  1  0  0  0
 19 20  1  0  0  0
 19 24  1  0  0  0
 20 21  2  0  0  0
 20 43  1  0  0  0
 21 22  1  0  0  0
 21 44  1  0  0  0
 22 25  2  0  0  0
 22 26  1  0  0  0
 23 45  1  0  0  0
 25 46  1  0  0  0
 26 28  1  0  0  0
 26 31  1  0  0  0
 27 29  1  0  0  0
 27 30  1  0  0  0
 27 32  1  0  0  0
 27 47  1  0  0  0
 28 29  1  0  0  0
 28 48  1  0  0  0
 28 49  1  0  0  0
 29 50  1  0  0  0
 29 51  1  0  0  0
 30 31  1  0  0  0
 30 52  1  0  0  0
 30 53  1  0  0  0
 31 54  1  0  0  0
 31 55  1  0  0  0
 32 56  1  0  0  0
 32 57  1  0  0  0
 32 58  1  0  0  0
 33 59  1  0  0  0
 33 60  1  0  0  0
 33 61  1  0  0  0
 34 62  1  0  0  0
 34 63  1  0  0  0
 34 64  1  0  0  0
M  CHG  1  27   1
M  END
> <s_pdb_PDB_format_version>
3.0

> <b_ppw_prepared>
1

> <s_ppw_prepared_with_version>
2021-1

> <s_ppw_het_states>
eJztmE1uwyAQha9ieW1ZzABj6FWi3qDqrquod+8M4WHUVaRWreOQRZixJ8/85NPDXGeaX6aLfmiZ3OsyXbi2vrahtrG2Ututtqm2ubbkEECRIEnQJIgSVAmyBF2CMEGZocytr1BmKDOUGcoMZVZlKgGUGcoeyh7Kvk0DlH1RtsimSq9y6dwyxSqrYXvCMoVaoKHsV1MNfSmgOq9Sa/Xn9jhCjBL7Vexi1Gv3bbZbjPrc1VuBrcSeoDvlKmMcGhCeXQIMoCQYmAXs+6SVWcdyl+xllrTuWInrE3TartrCMlbYFpewyibALWkzajORusRjpLbYtrwt8a5PmnTqyqzkJqCZW/MmWnqdSZQQWilqT2cOmti95D+X6f3j7e32Xf4Xj88QnZ0h7hhqrPwPQ9wz1Eg5E0O0OidcGIqFIZashXPgkvkC2BzsXlxJa8+I1Olt6UBInd+WFCmW2CFFcfclu5moAyy7eEakTu9SB9rpPYVLeZFup8ebUOdL3uUzQjR8aUD0mxBFsSE0X5JsMzGzv7lUDmH3pcwSAJhlNDZ+jwjYcKm/BSxzfx6xbTtezCF1QEU+Ek80eHo4w3qGFykJoRhWfXUSSQkWFddM4ZgHfG1lxqvTMKX/hyhvduBwvVmPrC7HcEhsfug992DjBjYDm7uw4dVHn9pejnVrZ2sDiPTm0544DIjGBu5uiFKmHiKRdhLOK2f55kSvn1/Wz9JC

$$$$
