@<TRIPOS>MOLECULE
MOL
   64    69     1     0     0
SMALL
bcc


@<TRIPOS>ATOM
      1 C1          10.0830    18.5170    15.6640 ca         1 MOL       0.204600
      2 C2           8.9300    19.8610    13.1940 ca         1 MOL      -0.194900
      3 C3          10.8340    19.3870    14.7730 ca         1 MOL      -0.205500
      4 C4          10.2670    20.0350    13.5800 ca         1 MOL      -0.052500
      5 C5           8.6820    18.3840    15.1820 ca         1 MOL      -0.205500
      6 C6           8.1210    19.0310    13.9920 ca         1 MOL      -0.052500
      7 N1          10.6670    17.8640    16.8820 nh         1 MOL      -0.665000
      8 C7           8.4010    20.5560    11.9970 cc         1 MOL       0.518400
      9 C8           8.4230    21.6350     9.9940 ca         1 MOL      -0.085200
     10 C9           7.0960    21.5470    10.4960 ca         1 MOL       0.104400
     11 C10          5.9510    22.1100     9.7540 ca         1 MOL      -0.078000
     12 C11          6.2590    22.7650     8.4860 ca         1 MOL      -0.104000
     13 C12          7.6150    22.8450     8.0050 ca         1 MOL      -0.133900
     14 C13          8.6960    22.2890     8.7350 ca         1 MOL      -0.114000
     15 N2           9.2140    20.9880    10.9860 na         1 MOL      -0.285300
     16 N3           7.1310    20.8950    11.6950 nd         1 MOL      -0.570100
     17 C14          7.8690    23.5140     6.7530 cc         1 MOL       0.515400
     18 C15          8.8380    24.1150     4.7620 ca         1 MOL      -0.071200
     19 C16          7.6830    24.9040     5.0530 ca         1 MOL       0.097400
     20 C17          7.2060    25.9580     4.1670 ca         1 MOL      -0.064000
     21 C18          7.9830    26.1640     2.9600 ca         1 MOL      -0.122000
     22 C19          9.1740    25.3530     2.6560 ca         1 MOL       0.054600
     23 N4           8.9260    23.2340     5.8760 na         1 MOL      -0.284300
     24 N5           7.1910    24.4870     6.2190 nd         1 MOL      -0.555100
     25 C20          9.6100    24.3320     3.5400 ca         1 MOL      -0.152000
     26 N6           9.9730    25.5480     1.4380 nh         1 MOL      -0.629000
     27 N7          11.5810    26.2340    -1.0190 nx         1 MOL      -0.675400
     28 C21         11.4950    25.4150     1.2490 c3         1 MOL       0.147800
     29 C22         11.9420    24.9480    -0.1850 c3         1 MOL       0.105300
     30 C23         10.1970    26.7970    -0.7220 c3         1 MOL       0.105300
     31 C24          9.2390    25.7710     0.0390 c3         1 MOL       0.147800
     32 C25         11.9330    25.2170    -2.1640 c3         1 MOL       0.083100
     33 C26         10.2440    16.9300    18.0190 c3         1 MOL       0.190600
     34 C27         11.9810    17.8150    17.4680 c3         1 MOL       0.190600
     35 H1          11.8760    19.5920    14.9700 ha         1 MOL       0.141000
     36 H2          10.9210    20.6640    12.9940 ha         1 MOL       0.140000
     37 H3           7.9810    17.7670    15.7240 ha         1 MOL       0.141000
     38 H4           7.0860    18.8700    13.7280 ha         1 MOL       0.140000
     39 H5           4.9520    22.0240    10.1560 ha         1 MOL       0.161000
     40 H6           5.4650    23.1980     7.8950 ha         1 MOL       0.156000
     41 H7           9.7090    22.3480     8.3660 ha         1 MOL       0.130000
     42 H8          10.2090    20.8230    11.0330 hn         1 MOL       0.307700
     43 H9           6.3260    26.5260     4.4290 ha         1 MOL       0.166000
     44 H10          7.6930    26.9290     2.2550 ha         1 MOL       0.144000
     45 H11          9.5860    22.5030     6.0980 hn         1 MOL       0.311700
     46 H12         10.4800    23.7250     3.3360 ha         1 MOL       0.129000
     47 H13         12.2940    26.9440    -0.9260 hn         1 MOL       0.461800
     48 H14         11.8920    24.7250     1.9930 h1         1 MOL       0.081450
     49 H15         11.9720    26.3660     1.4840 h1         1 MOL       0.081450
     50 H16         13.0230    24.8110    -0.1930 hx         1 MOL       0.101450
     51 H17         11.3040    24.1250    -0.5060 hx         1 MOL       0.101450
     52 H18          9.7260    27.1090    -1.6540 hx         1 MOL       0.101450
     53 H19         10.2960    27.7070    -0.1300 hx         1 MOL       0.101450
     54 H20          8.2710    26.2420     0.2110 h1         1 MOL       0.081450
     55 H21          9.2130    24.8290    -0.5080 h1         1 MOL       0.081450
     56 H22         11.8200    25.7050    -3.1320 hx         1 MOL       0.104033
     57 H23         12.9630    24.8790    -2.0460 hx         1 MOL       0.104033
     58 H24         11.2610    24.3600    -2.1090 hx         1 MOL       0.104033
     59 H25         11.0930    16.7540    18.6800 h1         1 MOL       0.043033
     60 H26          9.4330    17.3890    18.5840 h1         1 MOL       0.043033
     61 H27          9.9050    15.9810    17.6030 h1         1 MOL       0.043033
     62 H28         11.9530    17.2100    18.3740 h1         1 MOL       0.043033
     63 H29         12.6800    17.3720    16.7580 h1         1 MOL       0.043033
     64 H30         12.3070    18.8250    17.7160 h1         1 MOL       0.043033
@<TRIPOS>BOND
     1     1     3 ar  
     2     1     5 ar  
     3     1     7 1   
     4     2     4 ar  
     5     2     6 ar  
     6     2     8 1   
     7     3     4 ar  
     8     3    35 1   
     9     4    36 1   
    10     5     6 ar  
    11     5    37 1   
    12     6    38 1   
    13     7    33 1   
    14     7    34 1   
    15     8    15 1   
    16     8    16 2   
    17     9    10 ar  
    18     9    14 ar  
    19     9    15 1   
    20    10    11 ar  
    21    10    16 1   
    22    11    12 ar  
    23    11    39 1   
    24    12    13 ar  
    25    12    40 1   
    26    13    14 ar  
    27    13    17 1   
    28    14    41 1   
    29    15    42 1   
    30    17    23 1   
    31    17    24 2   
    32    18    19 ar  
    33    18    23 1   
    34    18    25 ar  
    35    19    20 ar  
    36    19    24 1   
    37    20    21 ar  
    38    20    43 1   
    39    21    22 ar  
    40    21    44 1   
    41    22    25 ar  
    42    22    26 1   
    43    23    45 1   
    44    25    46 1   
    45    26    28 1   
    46    26    31 1   
    47    27    29 1   
    48    27    30 1   
    49    27    32 1   
    50    27    47 1   
    51    28    29 1   
    52    28    48 1   
    53    28    49 1   
    54    29    50 1   
    55    29    51 1   
    56    30    31 1   
    57    30    52 1   
    58    30    53 1   
    59    31    54 1   
    60    31    55 1   
    61    32    56 1   
    62    32    57 1   
    63    32    58 1   
    64    33    59 1   
    65    33    60 1   
    66    33    61 1   
    67    34    62 1   
    68    34    63 1   
    69    34    64 1   
@<TRIPOS>SUBSTRUCTURE
     1 MOL         1 TEMP              0 ****  ****    0 ROOT
