@<TRIPOS>MOLECULE
MOL
   68    74     1     0     0
SMALL
bcc


@<TRIPOS>ATOM
      1 C1          34.0880    45.2810    30.0910 ca         1 MOL      -0.188300
      2 C2          34.7920    45.1410    31.2860 ca         1 MOL       0.368800
      3 C3          32.7800    45.7330    30.1240 ca         1 MOL      -0.092000
      4 C4          32.2210    46.0910    31.3480 ca         1 MOL      -0.126300
      5 C5          32.9790    45.9900    32.5340 ca         1 MOL       0.358300
      6 C6          32.3950    46.4200    33.7530 ca         1 MOL       0.358300
      7 C7          31.0680    46.9000    33.7380 ca         1 MOL      -0.126300
      8 C8          30.9070    46.5460    31.3640 ca         1 MOL      -0.105000
      9 C9          40.8410    42.1080    30.9590 c3         1 MOL       0.019600
     10 C10         41.7100    43.2610    35.8600 ca         1 MOL      -0.132000
     11 C11         32.4800    46.7520    36.0920 ca         1 MOL       0.368800
     12 C12         36.1880    44.5660    31.2450 c          1 MOL       0.571600
     13 C13         30.3310    46.9500    32.5570 ca         1 MOL      -0.105000
     14 C14         30.4550    47.3080    34.9210 ca         1 MOL      -0.092000
     15 C15         31.1700    47.2330    36.1070 ca         1 MOL      -0.188300
     16 C16         33.2250    46.6270    37.4020 c          1 MOL       0.571600
     17 C17         42.3490    42.4210    34.9530 ca         1 MOL      -0.123000
     18 C18         35.4150    45.8800    38.4030 ca         1 MOL       0.021600
     19 C19         36.5190    45.0680    38.1640 ca         1 MOL      -0.230000
     20 C20         37.4510    44.8600    39.1810 ca         1 MOL       0.010000
     21 C21         37.2380    45.4140    40.4540 ca         1 MOL       0.032700
     22 C22         35.2630    46.4330    39.6800 ca         1 MOL      -0.104300
     23 C23         38.5960    44.0990    38.9370 ca         1 MOL      -0.160000
     24 C24         41.7990    42.2080    33.6920 ca         1 MOL      -0.199000
     25 C25         38.2080    45.2410    41.4500 ca         1 MOL      -0.199000
     26 C26         39.5470    43.9180    39.9400 ca         1 MOL      -0.132000
     27 C27         39.3570    44.4970    41.1930 ca         1 MOL      -0.123000
     28 C28         40.5050    43.8700    35.5150 ca         1 MOL      -0.160000
     29 C29         38.0890    43.8770    32.7400 ca         1 MOL       0.021600
     30 C30         38.7690    43.0410    31.8510 ca         1 MOL      -0.104300
     31 C31         38.6880    44.1860    33.9550 ca         1 MOL      -0.230000
     32 C32         39.9260    43.6260    34.2680 ca         1 MOL       0.010000
     33 C33         40.5830    42.8070    33.3350 ca         1 MOL       0.032700
     34 C34         35.5530    46.2110    42.0950 c3         1 MOL       0.019600
     35 N1          34.2470    45.4800    32.4900 nb         1 MOL      -0.630000
     36 N2          36.7850    44.4040    32.4460 ns         1 MOL      -0.428100
     37 N3          36.0640    46.0700    40.7240 na         1 MOL      -0.089100
     38 N4          34.4830    46.1320    37.3350 ns         1 MOL      -0.428100
     39 N5          33.0830    46.3580    34.9360 nb         1 MOL      -0.630000
     40 N6          40.0450    42.6200    32.0850 na         1 MOL      -0.089100
     41 O1          32.7250    46.9460    38.4630 o          1 MOL      -0.601100
     42 O2          36.7420    44.2400    30.2140 o          1 MOL      -0.601100
     43 H1          34.5640    45.0380    29.1520 ha         1 MOL       0.172000
     44 H2          32.2100    45.8030    29.2090 ha         1 MOL       0.148000
     45 H3          30.3370    46.5840    30.4470 ha         1 MOL       0.143000
     46 H4          41.8290    41.8160    31.3150 h1         1 MOL       0.052367
     47 H5          40.3420    41.2420    30.5240 h1         1 MOL       0.052367
     48 H6          40.9430    42.8860    30.2020 h1         1 MOL       0.052367
     49 H7          42.1480    43.4410    36.8310 ha         1 MOL       0.131000
     50 H8          29.3110    47.3040    32.5720 ha         1 MOL       0.143000
     51 H9          29.4390    47.6750    34.9040 ha         1 MOL       0.148000
     52 H10         30.7200    47.5440    37.0380 ha         1 MOL       0.172000
     53 H11         43.2730    41.9330    35.2270 ha         1 MOL       0.127000
     54 H12         36.6490    44.6050    37.1970 ha         1 MOL       0.144000
     55 H13         34.4940    47.1700    39.8610 h4         1 MOL       0.189000
     56 H14         38.7480    43.6480    37.9680 ha         1 MOL       0.145000
     57 H15         42.3100    41.5770    32.9800 ha         1 MOL       0.129000
     58 H16         38.0670    45.6860    42.4240 ha         1 MOL       0.129000
     59 H17         40.4310    43.3290    39.7460 ha         1 MOL       0.131000
     60 H18         40.1010    44.3690    41.9650 ha         1 MOL       0.127000
     61 H19         40.0160    44.5330    36.2130 ha         1 MOL       0.145000
     62 H20         38.2850    42.7080    30.9450 h4         1 MOL       0.189000
     63 H21         38.1950    44.8540    34.6460 ha         1 MOL       0.144000
     64 H22         34.6130    46.7630    42.0780 h1         1 MOL       0.052367
     65 H23         35.3860    45.2230    42.5240 h1         1 MOL       0.052367
     66 H24         36.2800    46.7520    42.7010 h1         1 MOL       0.052367
     67 H25         36.3000    44.6710    33.2910 hn         1 MOL       0.339500
     68 H26         34.8820    45.8860    36.4400 hn         1 MOL       0.339500
@<TRIPOS>BOND
     1     1     2 ar  
     2     1     3 ar  
     3     1    43 1   
     4     2    12 1   
     5     2    35 ar  
     6     3     4 ar  
     7     3    44 1   
     8     4     5 ar  
     9     4     8 ar  
    10     5     6 ar  
    11     5    35 ar  
    12     6     7 ar  
    13     6    39 ar  
    14     7    13 ar  
    15     7    14 ar  
    16     8    13 ar  
    17     8    45 1   
    18     9    40 1   
    19     9    46 1   
    20     9    47 1   
    21     9    48 1   
    22    10    17 ar  
    23    10    28 ar  
    24    10    49 1   
    25    11    15 ar  
    26    11    16 1   
    27    11    39 ar  
    28    12    36 1   
    29    12    42 2   
    30    13    50 1   
    31    14    15 ar  
    32    14    51 1   
    33    15    52 1   
    34    16    38 1   
    35    16    41 2   
    36    17    24 ar  
    37    17    53 1   
    38    18    19 ar  
    39    18    22 ar  
    40    18    38 1   
    41    19    20 ar  
    42    19    54 1   
    43    20    21 ar  
    44    20    23 ar  
    45    21    25 ar  
    46    21    37 2   
    47    22    37 1   
    48    22    55 1   
    49    23    26 ar  
    50    23    56 1   
    51    24    33 ar  
    52    24    57 1   
    53    25    27 ar  
    54    25    58 1   
    55    26    27 ar  
    56    26    59 1   
    57    27    60 1   
    58    28    32 ar  
    59    28    61 1   
    60    29    30 ar  
    61    29    31 ar  
    62    29    36 1   
    63    30    40 2   
    64    30    62 1   
    65    31    32 ar  
    66    31    63 1   
    67    32    33 ar  
    68    33    40 1   
    69    34    37 1   
    70    34    64 1   
    71    34    65 1   
    72    34    66 1   
    73    36    67 1   
    74    38    68 1   
@<TRIPOS>SUBSTRUCTURE
     1 MOL         1 TEMP              0 ****  ****    0 ROOT
