
                    3D
 Schrodinger Suite 2021-1.
 68 74  0  0  1  0            999 V2000
   34.0880   45.2810   30.0910 C   0  0  0  0  0  0
   34.7920   45.1410   31.2860 C   0  0  0  0  0  0
   32.7800   45.7330   30.1240 C   0  0  0  0  0  0
   32.2210   46.0910   31.3480 C   0  0  0  0  0  0
   32.9790   45.9900   32.5340 C   0  0  0  0  0  0
   32.3950   46.4200   33.7530 C   0  0  0  0  0  0
   31.0680   46.9000   33.7380 C   0  0  0  0  0  0
   30.9070   46.5460   31.3640 C   0  0  0  0  0  0
   40.8410   42.1080   30.9590 C   0  0  0  0  0  0
   41.7100   43.2610   35.8600 C   0  0  0  0  0  0
   32.4800   46.7520   36.0920 C   0  0  0  0  0  0
   36.1880   44.5660   31.2450 C   0  0  0  0  0  0
   30.3310   46.9500   32.5570 C   0  0  0  0  0  0
   30.4550   47.3080   34.9210 C   0  0  0  0  0  0
   31.1700   47.2330   36.1070 C   0  0  0  0  0  0
   33.2250   46.6270   37.4020 C   0  0  0  0  0  0
   42.3490   42.4210   34.9530 C   0  0  0  0  0  0
   35.4150   45.8800   38.4030 C   0  0  0  0  0  0
   36.5190   45.0680   38.1640 C   0  0  0  0  0  0
   37.4510   44.8600   39.1810 C   0  0  0  0  0  0
   37.2380   45.4140   40.4540 C   0  0  0  0  0  0
   35.2630   46.4330   39.6800 C   0  0  0  0  0  0
   38.5960   44.0990   38.9370 C   0  0  0  0  0  0
   41.7990   42.2080   33.6920 C   0  0  0  0  0  0
   38.2080   45.2410   41.4500 C   0  0  0  0  0  0
   39.5470   43.9180   39.9400 C   0  0  0  0  0  0
   39.3570   44.4970   41.1930 C   0  0  0  0  0  0
   40.5050   43.8700   35.5150 C   0  0  0  0  0  0
   38.0890   43.8770   32.7400 C   0  0  0  0  0  0
   38.7690   43.0410   31.8510 C   0  0  0  0  0  0
   38.6880   44.1860   33.9550 C   0  0  0  0  0  0
   39.9260   43.6260   34.2680 C   0  0  0  0  0  0
   40.5830   42.8070   33.3350 C   0  0  0  0  0  0
   35.5530   46.2110   42.0950 C   0  0  0  0  0  0
   34.2470   45.4800   32.4900 N   0  0  0  0  0  0
   36.7850   44.4040   32.4460 N   0  0  0  0  0  0
   36.0640   46.0700   40.7240 N   0  0  0  0  0  0
   34.4830   46.1320   37.3350 N   0  0  0  0  0  0
   33.0830   46.3580   34.9360 N   0  0  0  0  0  0
   40.0450   42.6200   32.0850 N   0  0  0  0  0  0
   32.7250   46.9460   38.4630 O   0  0  0  0  0  0
   36.7420   44.2400   30.2140 O   0  0  0  0  0  0
   34.5636   45.0377   29.1524 H   0  0  0  0  0  0
   32.2098   45.8035   29.2095 H   0  0  0  0  0  0
   30.3375   46.5839   30.4472 H   0  0  0  0  0  0
   41.8291   41.8162   31.3149 H   0  0  0  0  0  0
   40.3416   41.2421   30.5244 H   0  0  0  0  0  0
   40.9430   42.8857   30.2022 H   0  0  0  0  0  0
   42.1480   43.4406   36.8307 H   0  0  0  0  0  0
   29.3107   47.3037   32.5718 H   0  0  0  0  0  0
   29.4394   47.6751   34.9042 H   0  0  0  0  0  0
   30.7195   47.5438   37.0380 H   0  0  0  0  0  0
   43.2729   41.9333   35.2270 H   0  0  0  0  0  0
   36.6493   44.6045   37.1973 H   0  0  0  0  0  0
   34.4944   47.1697   39.8615 H   0  0  0  0  0  0
   38.7479   43.6475   37.9677 H   0  0  0  0  0  0
   42.3097   41.5769   32.9797 H   0  0  0  0  0  0
   38.0672   45.6858   42.4240 H   0  0  0  0  0  0
   40.4312   43.3289   39.7459 H   0  0  0  0  0  0
   40.1012   44.3687   41.9651 H   0  0  0  0  0  0
   40.0158   44.5332   36.2131 H   0  0  0  0  0  0
   38.2845   42.7079   30.9451 H   0  0  0  0  0  0
   38.1948   44.8538   34.6458 H   0  0  0  0  0  0
   34.6133   46.7630   42.0781 H   0  0  0  0  0  0
   35.3859   45.2232   42.5244 H   0  0  0  0  0  0
   36.2804   46.7515   42.7006 H   0  0  0  0  0  0
   36.3003   44.6708   33.2910 H   0  0  0  0  0  0
   34.8817   45.8855   36.4404 H   0  0  0  0  0  0
  1  2  1  0  0  0
  1  3  2  0  0  0
  1 43  1  0  0  0
  2 12  1  0  0  0
  2 35  2  0  0  0
  3  4  1  0  0  0
  3 44  1  0  0  0
  4  5  1  0  0  0
  4  8  2  0  0  0
  5  6  2  0  0  0
  5 35  1  0  0  0
  6  7  1  0  0  0
  6 39  1  0  0  0
  7 13  2  0  0  0
  7 14  1  0  0  0
  8 13  1  0  0  0
  8 45  1  0  0  0
  9 40  1  0  0  0
  9 46  1  0  0  0
  9 47  1  0  0  0
  9 48  1  0  0  0
 10 17  2  0  0  0
 10 28  1  0  0  0
 10 49  1  0  0  0
 11 15  1  0  0  0
 11 16  1  0  0  0
 11 39  2  0  0  0
 12 36  1  0  0  0
 12 42  2  0  0  0
 13 50  1  0  0  0
 14 15  2  0  0  0
 14 51  1  0  0  0
 15 52  1  0  0  0
 16 38  1  0  0  0
 16 41  2  0  0  0
 17 24  1  0  0  0
 17 53  1  0  0  0
 18 19  2  0  0  0
 18 22  1  0  0  0
 18 38  1  0  0  0
 19 20  1  0  0  0
 19 54  1  0  0  0
 20 21  1  0  0  0
 20 23  2  0  0  0
 21 25  2  0  0  0
 21 37  1  0  0  0
 22 37  2  0  0  0
 22 55  1  0  0  0
 23 26  1  0  0  0
 23 56  1  0  0  0
 24 33  2  0  0  0
 24 57  1  0  0  0
 25 27  1  0  0  0
 25 58  1  0  0  0
 26 27  2  0  0  0
 26 59  1  0  0  0
 27 60  1  0  0  0
 28 32  2  0  0  0
 28 61  1  0  0  0
 29 30  1  0  0  0
 29 31  2  0  0  0
 29 36  1  0  0  0
 30 40  2  0  0  0
 30 62  1  0  0  0
 31 32  1  0  0  0
 31 63  1  0  0  0
 32 33  1  0  0  0
 33 40  1  0  0  0
 34 37  1  0  0  0
 34 64  1  0  0  0
 34 65  1  0  0  0
 34 66  1  0  0  0
 36 67  1  0  0  0
 38 68  1  0  0  0
M  END
> <i_pdb_PDB_Model>
1

> <s_pdb_PDB_format_version>
3.0

> <b_ppw_prepared>
1

> <s_ppw_prepared_with_version>
2021-1

> <s_ppw_het_states>
eJxNk0lyg0AMRa9CsSYpJDE5V3FxA1d2Wbl89+iDXoMXln4PrzXx7q3/6Z75s6Eb96F7etkoO5Wdyy5l17Jb2UdZG3EgGkiDaUANqoE1uAbYIDtkb7FCdsgO2SE7ZIfskB1yQA7I0coAOSAH5IAckANyQJ4gT5CngyxPJU9hR5JDlw95NcBYTqvnvBoy1XLa+XK3OpBLy+UGJ3JtvVxFZtU/40n5sLdz3aqnSsDoq5rjCJXRaLTNd7HchB50xiDaTgpVwhkHI01djoZOoco5o+GEqfGwhlYJ/LZzAXSEFORodi7Raq435psISiZskPZxnhQUSjSALrc7yymcaQsy1cRFC0fC7jugdUSFd2YySE5O0B45rT+azzPqVF/jd66/+5jz605/HBPSx+OulvVU/jjU1tRn6H7/Xq/zf98//5Yr2v0=

$$$$
