@<TRIPOS>MOLECULE
MOL
   82    87     1     0     0
SMALL
bcc


@<TRIPOS>ATOM
      1 C1          -2.8490     6.9480     5.8420 c3         1 MOL      -0.128100
      2 C2          -4.1050     7.4520     5.1290 c3         1 MOL      -0.007700
      3 N1          -4.5380     6.4760     4.1040 na         1 MOL       0.024900
      4 C3          -4.0520     6.5710     2.7940 ca         1 MOL      -0.016300
      5 C4          -4.4620     5.6510     1.8330 ca         1 MOL      -0.154500
      6 C5          -5.4360     5.4540     4.4450 ca         1 MOL      -0.016300
      7 C6          -5.8410     4.5380     3.4790 ca         1 MOL      -0.154500
      8 C7          -5.3560     4.6360     2.1750 cp         1 MOL       0.110000
      9 C8          -5.7630     3.7180     1.2130 cp         1 MOL      -0.120000
     10 C9          -5.3920     2.3800     1.3250 ca         1 MOL      -0.061000
     11 C10         -5.8000     1.4600     0.3610 ca         1 MOL      -0.161000
     12 C11         -6.5440     4.1370     0.1370 ca         1 MOL      -0.061000
     13 C12         -6.9520     3.2180    -0.8280 ca         1 MOL      -0.161000
     14 C13         -6.5810     1.8790    -0.7160 ca         1 MOL       0.189600
     15 N2          -6.9710     1.0000    -1.6380 nh         1 MOL      -0.447800
     16 C14         -7.9540     0.1550    -1.3280 ca         1 MOL       0.189600
     17 C15         -7.6600    -1.1700    -1.0090 ca         1 MOL      -0.161000
     18 C16         -8.6890    -2.0530    -0.6850 ca         1 MOL      -0.061000
     19 C17         -9.2770     0.5960    -1.3240 ca         1 MOL      -0.161000
     20 C18        -10.3050    -0.2870    -1.0000 ca         1 MOL      -0.061000
     21 C19        -10.0110    -1.6120    -0.6810 cp         1 MOL      -0.120000
     22 C20        -11.0390    -2.4910    -0.3590 cp         1 MOL       0.110000
     23 C21        -11.6110    -2.4560     0.9120 ca         1 MOL      -0.154500
     24 C22        -12.6400    -3.3340     1.2380 ca         1 MOL      -0.016300
     25 C23        -11.4930    -3.4060    -1.3080 ca         1 MOL      -0.154500
     26 C24        -12.5220    -4.2880    -0.9900 ca         1 MOL      -0.016300
     27 N3         -13.0990    -4.2550     0.2860 na         1 MOL       0.024900
     28 C25        -14.1940    -5.1900     0.6280 c3         1 MOL      -0.007700
     29 C26        -15.5510    -4.5120     0.4280 c3         1 MOL      -0.128100
     30 C27         -6.3670     0.8630    -2.8190 ca         1 MOL       0.189600
     31 C28         -5.0200     0.5040    -2.8750 ca         1 MOL      -0.161000
     32 C29         -4.3880     0.3600    -4.1080 ca         1 MOL      -0.061000
     33 C30         -7.0790     1.0770    -3.9990 ca         1 MOL      -0.161000
     34 C31         -6.4450     0.9320    -5.2320 ca         1 MOL      -0.061000
     35 C32         -5.1000     0.5740    -5.2860 cp         1 MOL      -0.120000
     36 C33         -4.4670     0.4300    -6.5150 cp         1 MOL       0.110000
     37 C34         -4.7090    -0.7020    -7.2920 ca         1 MOL      -0.154500
     38 C35         -4.0760    -0.8500    -8.5240 ca         1 MOL      -0.016300
     39 C36         -3.5920     1.4180    -6.9650 ca         1 MOL      -0.154500
     40 C37         -2.9560     1.2770    -8.1950 ca         1 MOL      -0.016300
     41 N4          -3.1960     0.1410    -8.9790 na         1 MOL       0.024900
     42 C38         -2.5210    -0.0120   -10.2880 c3         1 MOL      -0.007700
     43 C39         -3.3650     0.6240   -11.3950 c3         1 MOL      -0.128100
     44 H1          -2.5410     7.6750     6.5930 hc         1 MOL       0.077700
     45 H2          -3.0630     5.9950     6.3250 hc         1 MOL       0.077700
     46 H3          -2.0470     6.8150     5.1160 hc         1 MOL       0.077700
     47 H4          -3.8930     8.4090     4.6520 h1         1 MOL       0.102200
     48 H5          -4.9040     7.5930     5.8570 h1         1 MOL       0.102200
     49 H6          -3.3600     7.3570     2.5300 h4         1 MOL       0.212000
     50 H7          -4.0880     5.7230     0.8220 ha         1 MOL       0.191000
     51 H8          -5.8110     5.3800     5.4550 h4         1 MOL       0.212000
     52 H9          -6.5320     3.7500     3.7390 ha         1 MOL       0.191000
     53 H10         -4.7880     2.0550     2.1590 ha         1 MOL       0.151000
     54 H11         -5.5110     0.4230     0.4480 ha         1 MOL       0.161333
     55 H12         -6.8330     5.1740     0.0510 ha         1 MOL       0.151000
     56 H13         -7.5560     3.5430    -1.6630 ha         1 MOL       0.161333
     57 H14         -6.6360    -1.5120    -1.0130 ha         1 MOL       0.161333
     58 H15         -8.4620    -3.0790    -0.4370 ha         1 MOL       0.151000
     59 H16         -9.5050     1.6220    -1.5720 ha         1 MOL       0.161333
     60 H17        -11.3290     0.0550    -0.9960 ha         1 MOL       0.151000
     61 H18        -11.2550    -1.7470     1.6450 ha         1 MOL       0.191000
     62 H19        -13.0830    -3.3050     2.2230 h4         1 MOL       0.212000
     63 H20        -11.0460    -3.4310    -2.2910 ha         1 MOL       0.191000
     64 H21        -12.8740    -4.9950    -1.7260 h4         1 MOL       0.212000
     65 H22        -14.0940    -5.5020     1.6680 h1         1 MOL       0.102200
     66 H23        -14.1310    -6.0720    -0.0100 h1         1 MOL       0.102200
     67 H24        -16.3480    -5.2110     0.6830 hc         1 MOL       0.077700
     68 H25        -15.6180    -3.6350     1.0710 hc         1 MOL       0.077700
     69 H26        -15.6550    -4.2070    -0.6130 hc         1 MOL       0.077700
     70 H27         -4.4670     0.3380    -1.9620 ha         1 MOL       0.161333
     71 H28         -3.3450     0.0820    -4.1510 ha         1 MOL       0.151000
     72 H29         -8.1220     1.3550    -3.9580 ha         1 MOL       0.161333
     73 H30         -6.9970     1.0970    -6.1460 ha         1 MOL       0.151000
     74 H31         -5.3870    -1.4640    -6.9390 ha         1 MOL       0.191000
     75 H32         -4.2640    -1.7270    -9.1260 h4         1 MOL       0.212000
     76 H33         -3.4080     2.2930    -6.3590 ha         1 MOL       0.191000
     77 H34         -2.2790     2.0430    -8.5440 h4         1 MOL       0.212000
     78 H35         -2.3800    -1.0710   -10.5020 h1         1 MOL       0.102200
     79 H36         -1.5450     0.4720   -10.2520 h1         1 MOL       0.102200
     80 H37         -2.8580     0.5050   -12.3530 hc         1 MOL       0.077700
     81 H38         -4.3380     0.1360   -11.4370 hc         1 MOL       0.077700
     82 H39         -3.5000     1.6850   -11.1850 hc         1 MOL       0.077700
@<TRIPOS>BOND
     1     1     2 1   
     2     1    44 1   
     3     1    45 1   
     4     1    46 1   
     5     2     3 1   
     6     2    47 1   
     7     2    48 1   
     8     3     4 2   
     9     3     6 1   
    10     4     5 ar  
    11     4    49 1   
    12     5     8 ar  
    13     5    50 1   
    14     6     7 ar  
    15     6    51 1   
    16     7     8 ar  
    17     7    52 1   
    18     8     9 1   
    19     9    10 ar  
    20     9    12 ar  
    21    10    11 ar  
    22    10    53 1   
    23    11    14 ar  
    24    11    54 1   
    25    12    13 ar  
    26    12    55 1   
    27    13    14 ar  
    28    13    56 1   
    29    14    15 1   
    30    15    16 1   
    31    15    30 1   
    32    16    17 ar  
    33    16    19 ar  
    34    17    18 ar  
    35    17    57 1   
    36    18    21 ar  
    37    18    58 1   
    38    19    20 ar  
    39    19    59 1   
    40    20    21 ar  
    41    20    60 1   
    42    21    22 1   
    43    22    23 ar  
    44    22    25 ar  
    45    23    24 ar  
    46    23    61 1   
    47    24    27 2   
    48    24    62 1   
    49    25    26 ar  
    50    25    63 1   
    51    26    27 1   
    52    26    64 1   
    53    27    28 1   
    54    28    29 1   
    55    28    65 1   
    56    28    66 1   
    57    29    67 1   
    58    29    68 1   
    59    29    69 1   
    60    30    31 ar  
    61    30    33 ar  
    62    31    32 ar  
    63    31    70 1   
    64    32    35 ar  
    65    32    71 1   
    66    33    34 ar  
    67    33    72 1   
    68    34    35 ar  
    69    34    73 1   
    70    35    36 1   
    71    36    37 ar  
    72    36    39 ar  
    73    37    38 ar  
    74    37    74 1   
    75    38    41 2   
    76    38    75 1   
    77    39    40 ar  
    78    39    76 1   
    79    40    41 1   
    80    40    77 1   
    81    41    42 1   
    82    42    43 1   
    83    42    78 1   
    84    42    79 1   
    85    43    80 1   
    86    43    81 1   
    87    43    82 1   
@<TRIPOS>SUBSTRUCTURE
     1 MOL         1 TEMP              0 ****  ****    0 ROOT
