
                    3D
 Schrodinger Suite 2021-1.
 82 87  0  0  1  0            999 V2000
   -2.8490    6.9480    5.8420 C   0  0  0  0  0  0
   -4.1050    7.4520    5.1290 C   0  0  0  0  0  0
   -4.5380    6.4760    4.1040 N   0  0  0  0  0  0
   -4.0520    6.5710    2.7940 C   0  0  0  0  0  0
   -4.4620    5.6510    1.8330 C   0  0  0  0  0  0
   -5.4360    5.4540    4.4450 C   0  0  0  0  0  0
   -5.8410    4.5380    3.4790 C   0  0  0  0  0  0
   -5.3560    4.6360    2.1750 C   0  0  0  0  0  0
   -5.7630    3.7180    1.2130 C   0  0  0  0  0  0
   -5.3920    2.3800    1.3250 C   0  0  0  0  0  0
   -5.8000    1.4600    0.3610 C   0  0  0  0  0  0
   -6.5440    4.1370    0.1370 C   0  0  0  0  0  0
   -6.9520    3.2180   -0.8280 C   0  0  0  0  0  0
   -6.5810    1.8790   -0.7160 C   0  0  0  0  0  0
   -6.9710    1.0000   -1.6380 N   0  0  0  0  0  0
   -7.9540    0.1550   -1.3280 C   0  0  0  0  0  0
   -7.6600   -1.1700   -1.0090 C   0  0  0  0  0  0
   -8.6890   -2.0530   -0.6850 C   0  0  0  0  0  0
   -9.2770    0.5960   -1.3240 C   0  0  0  0  0  0
  -10.3050   -0.2870   -1.0000 C   0  0  0  0  0  0
  -10.0110   -1.6120   -0.6810 C   0  0  0  0  0  0
  -11.0390   -2.4910   -0.3590 C   0  0  0  0  0  0
  -11.6110   -2.4560    0.9120 C   0  0  0  0  0  0
  -12.6400   -3.3340    1.2380 C   0  0  0  0  0  0
  -11.4930   -3.4060   -1.3080 C   0  0  0  0  0  0
  -12.5220   -4.2880   -0.9900 C   0  0  0  0  0  0
  -13.0990   -4.2550    0.2860 N   0  0  0  0  0  0
  -14.1940   -5.1900    0.6280 C   0  0  0  0  0  0
  -15.5510   -4.5120    0.4280 C   0  0  0  0  0  0
   -6.3670    0.8630   -2.8190 C   0  0  0  0  0  0
   -5.0200    0.5040   -2.8750 C   0  0  0  0  0  0
   -4.3880    0.3600   -4.1080 C   0  0  0  0  0  0
   -7.0790    1.0770   -3.9990 C   0  0  0  0  0  0
   -6.4450    0.9320   -5.2320 C   0  0  0  0  0  0
   -5.1000    0.5740   -5.2860 C   0  0  0  0  0  0
   -4.4670    0.4300   -6.5150 C   0  0  0  0  0  0
   -4.7090   -0.7020   -7.2920 C   0  0  0  0  0  0
   -4.0760   -0.8500   -8.5240 C   0  0  0  0  0  0
   -3.5920    1.4180   -6.9650 C   0  0  0  0  0  0
   -2.9560    1.2770   -8.1950 C   0  0  0  0  0  0
   -3.1960    0.1410   -8.9790 N   0  0  0  0  0  0
   -2.5210   -0.0120  -10.2880 C   0  0  0  0  0  0
   -3.3650    0.6240  -11.3950 C   0  0  0  0  0  0
   -2.5408    7.6749    6.5934 H   0  0  0  0  0  0
   -3.0628    5.9948    6.3255 H   0  0  0  0  0  0
   -2.0471    6.8146    5.1158 H   0  0  0  0  0  0
   -3.8925    8.4089    4.6523 H   0  0  0  0  0  0
   -4.9040    7.5925    5.8570 H   0  0  0  0  0  0
   -3.3601    7.3572    2.5304 H   0  0  0  0  0  0
   -4.0880    5.7229    0.8224 H   0  0  0  0  0  0
   -5.8112    5.3796    5.4550 H   0  0  0  0  0  0
   -6.5320    3.7496    3.7385 H   0  0  0  0  0  0
   -4.7879    2.0551    2.1592 H   0  0  0  0  0  0
   -5.5114    0.4229    0.4480 H   0  0  0  0  0  0
   -6.8331    5.1740    0.0510 H   0  0  0  0  0  0
   -7.5555    3.5433   -1.6625 H   0  0  0  0  0  0
   -6.6355   -1.5118   -1.0130 H   0  0  0  0  0  0
   -8.4618   -3.0793   -0.4370 H   0  0  0  0  0  0
   -9.5049    1.6221   -1.5721 H   0  0  0  0  0  0
  -11.3294    0.0550   -0.9960 H   0  0  0  0  0  0
  -11.2554   -1.7468    1.6448 H   0  0  0  0  0  0
  -13.0831   -3.3049    2.2225 H   0  0  0  0  0  0
  -11.0463   -3.4310   -2.2910 H   0  0  0  0  0  0
  -12.8736   -4.9955   -1.7263 H   0  0  0  0  0  0
  -14.0937   -5.5018    1.6676 H   0  0  0  0  0  0
  -14.1311   -6.0716   -0.0099 H   0  0  0  0  0  0
  -16.3479   -5.2106    0.6831 H   0  0  0  0  0  0
  -15.6178   -3.6348    1.0715 H   0  0  0  0  0  0
  -15.6554   -4.2070   -0.6132 H   0  0  0  0  0  0
   -4.4671    0.3377   -1.9623 H   0  0  0  0  0  0
   -3.3452    0.0822   -4.1511 H   0  0  0  0  0  0
   -8.1218    1.3551   -3.9576 H   0  0  0  0  0  0
   -6.9967    1.0973   -6.1456 H   0  0  0  0  0  0
   -5.3874   -1.4645   -6.9388 H   0  0  0  0  0  0
   -4.2640   -1.7268   -9.1258 H   0  0  0  0  0  0
   -3.4077    2.2928   -6.3591 H   0  0  0  0  0  0
   -2.2787    2.0426   -8.5436 H   0  0  0  0  0  0
   -2.3801   -1.0714  -10.5022 H   0  0  0  0  0  0
   -1.5451    0.4721  -10.2520 H   0  0  0  0  0  0
   -2.8583    0.5051  -12.3527 H   0  0  0  0  0  0
   -4.3385    0.1355  -11.4365 H   0  0  0  0  0  0
   -3.5002    1.6851  -11.1853 H   0  0  0  0  0  0
  1  2  1  0  0  0
  1 44  1  0  0  0
  1 45  1  0  0  0
  1 46  1  0  0  0
  2  3  1  0  0  0
  2 47  1  0  0  0
  2 48  1  0  0  0
  3  4  2  0  0  0
  3  6  1  0  0  0
  4  5  1  0  0  0
  4 49  1  0  0  0
  5  8  2  0  0  0
  5 50  1  0  0  0
  6  7  2  0  0  0
  6 51  1  0  0  0
  7  8  1  0  0  0
  7 52  1  0  0  0
  8  9  1  0  0  0
  9 10  1  0  0  0
  9 12  2  0  0  0
 10 11  2  0  0  0
 10 53  1  0  0  0
 11 14  1  0  0  0
 11 54  1  0  0  0
 12 13  1  0  0  0
 12 55  1  0  0  0
 13 14  2  0  0  0
 13 56  1  0  0  0
 14 15  1  0  0  0
 15 16  1  0  0  0
 15 30  1  0  0  0
 16 17  1  0  0  0
 16 19  2  0  0  0
 17 18  2  0  0  0
 17 57  1  0  0  0
 18 21  1  0  0  0
 18 58  1  0  0  0
 19 20  1  0  0  0
 19 59  1  0  0  0
 20 21  2  0  0  0
 20 60  1  0  0  0
 21 22  1  0  0  0
 22 23  2  0  0  0
 22 25  1  0  0  0
 23 24  1  0  0  0
 23 61  1  0  0  0
 24 27  2  0  0  0
 24 62  1  0  0  0
 25 26  2  0  0  0
 25 63  1  0  0  0
 26 27  1  0  0  0
 26 64  1  0  0  0
 27 28  1  0  0  0
 28 29  1  0  0  0
 28 65  1  0  0  0
 28 66  1  0  0  0
 29 67  1  0  0  0
 29 68  1  0  0  0
 29 69  1  0  0  0
 30 31  2  0  0  0
 30 33  1  0  0  0
 31 32  1  0  0  0
 31 70  1  0  0  0
 32 35  2  0  0  0
 32 71  1  0  0  0
 33 34  2  0  0  0
 33 72  1  0  0  0
 34 35  1  0  0  0
 34 73  1  0  0  0
 35 36  1  0  0  0
 36 37  2  0  0  0
 36 39  1  0  0  0
 37 38  1  0  0  0
 37 74  1  0  0  0
 38 41  2  0  0  0
 38 75  1  0  0  0
 39 40  2  0  0  0
 39 76  1  0  0  0
 40 41  1  0  0  0
 40 77  1  0  0  0
 41 42  1  0  0  0
 42 43  1  0  0  0
 42 78  1  0  0  0
 42 79  1  0  0  0
 43 80  1  0  0  0
 43 81  1  0  0  0
 43 82  1  0  0  0
M  END
> <i_pdb_PDB_Model>
1

> <s_pdb_PDB_format_version>
3.0

> <b_ppw_prepared>
1

> <s_ppw_prepared_with_version>
2021-1

> <s_ppw_het_states>
eJxNkkuOwkAMBa8Ssc6M4g8Jmaug3ACxY4W4+9jG1QoL/Oy2ql/cfl/k8jfd4yfztBzzdNeO1tE7XjuuHbeOt457R1kQEAWkwBSgAlXAClwBLJAVsg6vkBWyQlbIClkhK2SFbJANso0xQDbIBtkgG2SDbJAdskN2yF7kVDn7qEqP31pGjDu15drVKF1bRrx1Q5xuLbeqSr/N3jLjctLa3VUUkhD5NsKzCV5K4KZaMFFiPSXGNVXdzskOIKtYLyG0ZQuAFIq3EmNKad84yQQ7VeUTUihzyZZcBmUrFG/VwsxSKFPLbzEcVDIeJ6qGnRS5FsrG2Hg4/54Im2OMKoXhrZJxaVQNOyl8OIiW3ChltZy5pXDspPAyGtnP8huN7888PV+Px/f/OD7/INvTtQ==

$$$$
