Structure207
                    3D
 Structure written by MMmdl.
175181  0  0  1  0            999 V2000
    4.2520   21.3760   10.4470 N   0  0  0  0  0  0
    4.1140   19.9940   10.0220 C   0  0  2  0  0  0
    5.1970   19.2130   10.6650 C   0  0  0  0  0  0
    6.3840   19.5620   10.6940 O   0  0  0  0  0  0
    4.1740   19.6430    8.5310 C   0  0  2  0  0  0
    5.4920   19.9590    8.0170 O   0  0  0  0  0  0
    3.0880   20.3890    7.7600 C   0  0  0  0  0  0
    4.9200   21.4850   11.1610 H   0  0  0  0  0  0
    4.5880   18.2040   11.2740 N   0  0  0  0  0  0
    5.2870   16.9930   11.6300 C   0  0  2  0  0  0
    4.3430   15.7950   11.3330 C   0  0  0  0  0  0
    4.3450   14.6230   12.3190 C   0  0  0  0  0  0
    4.4720   15.2850    9.8900 C   0  0  0  0  0  0
    5.7660   16.9890   13.0640 C   0  0  0  0  0  0
    4.9570   17.3630   13.9080 O   0  0  0  0  0  0
    3.6680   18.3270   11.5820 H   0  0  0  0  0  0
    6.9940   16.5950   13.4090 N   0  0  0  0  0  0
    8.1090   16.3430   12.4800 C   0  0  2  0  0  0
    7.8260   15.2740   11.4090 C   0  0  0  0  0  0
    7.3180   14.2110   11.7870 O   0  0  0  0  0  0
    9.2650   15.8790   13.3880 C   0  0  0  0  0  0
    8.8210   16.1950   14.7930 C   0  0  0  0  0  0
    7.3030   16.0500   14.7290 C   0  0  0  0  0  0
    8.0410   15.5040   10.1000 N   0  0  0  0  0  0
    8.5450   16.7500    9.5300 C   0  0  0  0  0  0
    7.6720   17.3860    8.4440 C   0  0  0  0  0  0
    6.5660   16.9080    8.1890 O   0  0  0  0  0  0
    7.9790   14.3620    9.1940 C   0  0  0  0  0  0
    8.0860   18.4730    7.7790 N   0  0  0  0  0  0
    9.0970   19.3030    8.4220 C   0  0  0  0  0  0
    7.4400   19.1390    6.6450 C   0  0  1  0  0  0
    7.8900   18.4780    5.2890 C   0  0  0  0  0  0
    7.1680   17.2030    4.9680 C   0  0  0  0  0  0
    7.8280   19.3980    4.0800 C   0  0  0  0  0  0
    5.9310   19.3950    6.8040 C   0  0  0  0  0  0
    5.2650   19.6210    5.7810 O   0  0  0  0  0  0
    3.1100   23.4800   10.9080 C   0  0  0  0  0  0
    3.1450   22.0680   10.7220 C   0  0  0  0  0  0
    2.0910   21.4380   10.8180 O   0  0  0  0  0  0
    2.8720   24.3190    9.7980 C   0  0  0  0  0  0
    2.6940   23.7930    8.5920 N   0  0  0  0  0  0
    2.8120   25.7330    9.9350 C   0  0  0  0  0  0
    2.5910   26.4360    8.9430 O   0  0  0  0  0  0
    2.9960   26.3340   11.1990 C   0  0  0  0  0  0
    3.4030   26.0630   13.5580 O   0  0  0  0  0  0
    3.7680   25.7850   15.9720 C   0  0  0  0  0  0
    3.9610   24.8520   17.0070 C   0  0  0  0  0  0
    3.9840   23.5510   16.7530 N   0  0  0  0  0  0
    3.8350   23.0240   15.5520 C   0  0  0  0  0  0
    3.8590   21.6390   15.3470 C   0  0  0  0  0  0
    4.9290   21.1070   15.0780 O   0  0  0  0  0  0
    3.4900   23.3400   13.2400 N   0  0  0  0  0  0
    3.2870   24.0810   12.1760 C   0  0  0  0  0  0
    3.2360   25.5120   12.3250 C   0  0  0  0  0  0
    3.6040   25.2730   14.6420 C   0  0  0  0  0  0
    3.6440   23.8590   14.4410 C   0  0  0  0  0  0
    2.9160   27.8490   11.3450 C   0  0  0  0  0  0
    3.7380   27.2750   16.3250 C   0  0  0  0  0  0
    2.5200   24.4020    7.8020 H   0  0  0  0  0  0
    2.7220   22.7960    8.4500 H   0  0  0  0  0  0
    2.7320   20.9310   15.4090 N   0  0  0  0  0  0
    2.7980   19.4770   15.2090 C   0  0  2  0  0  0
    1.6750   18.9450   14.3560 C   0  0  0  0  0  0
    0.5800   19.5240   14.3250 O   0  0  0  0  0  0
    2.7320   18.6400   16.4840 C   0  0  2  0  0  0
    1.5810   19.1100   17.2180 O   0  0  0  0  0  0
    4.0170   18.6680   17.2830 C   0  0  0  0  0  0
    2.0620   21.3440   14.8230 H   0  0  0  0  0  0
    1.9630   17.8290   13.6820 N   0  0  0  0  0  0
    0.8970   17.1950   12.9400 C   0  0  2  0  0  0
    1.0370   15.6780   12.9410 C   0  0  0  0  0  0
   -0.1060   14.9860   12.2170 C   0  0  0  0  0  0
    1.1280   15.1890   14.3660 C   0  0  0  0  0  0
    0.8310   17.7510   11.5260 C   0  0  0  0  0  0
    1.7220   17.3960   10.7510 O   0  0  0  0  0  0
    2.8540   17.4280   13.6950 H   0  0  0  0  0  0
   -0.1050   18.6310   11.1190 N   0  0  0  0  0  0
   -1.1820   19.1990   11.9480 C   0  0  2  0  0  0
   -2.2150   18.1900   12.4180 C   0  0  0  0  0  0
   -2.4780   17.2750   11.6330 O   0  0  0  0  0  0
   -1.7840   20.2090   11.0040 C   0  0  0  0  0  0
   -1.5670   19.6580    9.6250 C   0  0  0  0  0  0
   -0.1430   19.1980    9.7690 C   0  0  0  0  0  0
   -2.7930   18.2260   13.6220 N   0  0  0  0  0  0
   -2.5560   19.1250   14.7250 C   0  0  0  0  0  0
   -1.8920   18.4400   15.9250 C   0  0  0  0  0  0
   -1.7480   17.2160   15.9270 O   0  0  0  0  0  0
   -3.9530   17.3790   13.8470 C   0  0  0  0  0  0
   -1.4650   19.1540   16.9820 N   0  0  0  0  0  0
   -1.4910   20.5910   16.9170 C   0  0  0  0  0  0
   -0.6830   18.7230   18.1290 C   0  0  1  0  0  0
   -1.4650   17.7890   19.1050 C   0  0  0  0  0  0
   -0.6060   17.4800   20.3210 C   0  0  0  0  0  0
   -2.7350   18.4480   19.6310 C   0  0  0  0  0  0
    0.6390   18.1600   17.6090 C   0  0  0  0  0  0
    0.7310   16.9820   17.2260 O   0  0  0  0  0  0
    3.1653   19.6231   10.4099 H   0  0  0  0  0  0
    4.0055   18.5719    8.4194 H   0  0  0  0  0  0
    3.1466   20.1270    6.7036 H   0  0  0  0  0  0
    2.1088   20.1103    8.1492 H   0  0  0  0  0  0
    3.2321   21.4632    7.8759 H   0  0  0  0  0  0
    6.1593   16.9040   10.9825 H   0  0  0  0  0  0
    3.3369   16.2100   11.3940 H   0  0  0  0  0  0
    3.6392   13.8634   11.9828 H   0  0  0  0  0  0
    5.3449   14.1920   12.3699 H   0  0  0  0  0  0
    4.0523   14.9782   13.3070 H   0  0  0  0  0  0
    3.7904   14.4482    9.7376 H   0  0  0  0  0  0
    4.2216   16.0879    9.1966 H   0  0  0  0  0  0
    5.4957   14.9565    9.7103 H   0  0  0  0  0  0
    8.3880   17.2766   11.9914 H   0  0  0  0  0  0
   10.1614   16.4533   13.1542 H   0  0  0  0  0  0
    9.3967   14.8020   13.2839 H   0  0  0  0  0  0
    9.0745   17.2290   15.0268 H   0  0  0  0  0  0
    9.2257   15.4475   15.4753 H   0  0  0  0  0  0
    7.0425   14.9918   14.7502 H   0  0  0  0  0  0
    6.8497   16.6816   15.4930 H   0  0  0  0  0  0
    9.5476   16.5855    9.1352 H   0  0  0  0  0  0
    8.7070   17.4722   10.3302 H   0  0  0  0  0  0
    8.1715   14.6956    8.1743 H   0  0  0  0  0  0
    8.7301   13.6270    9.4831 H   0  0  0  0  0  0
    6.9890   13.9091    9.2467 H   0  0  0  0  0  0
    9.3399   20.1466    7.7759 H   0  0  0  0  0  0
    8.7132   19.6728    9.3728 H   0  0  0  0  0  0
    9.9951   18.7111    8.5988 H   0  0  0  0  0  0
    7.8845   20.1340    6.6239 H   0  0  0  0  0  0
    8.9392   18.2104    5.4143 H   0  0  0  0  0  0
    7.5321   16.8075    4.0198 H   0  0  0  0  0  0
    7.3480   16.4741    5.7582 H   0  0  0  0  0  0
    6.0985   17.3996    4.8924 H   0  0  0  0  0  0
    8.1560   18.8559    3.1931 H   0  0  0  0  0  0
    6.8037   19.7421    3.9368 H   0  0  0  0  0  0
    8.4798   20.2565    4.2422 H   0  0  0  0  0  0
    4.0927   25.1926   18.0234 H   0  0  0  0  0  0
    3.0831   28.1235   12.3866 H   0  0  0  0  0  0
    3.6777   28.3155   10.7202 H   0  0  0  0  0  0
    1.9300   28.1931   11.0328 H   0  0  0  0  0  0
    3.5813   27.8605   15.4190 H   0  0  0  0  0  0
    2.9255   27.4666   17.0259 H   0  0  0  0  0  0
    4.6858   27.5599   16.7817 H   0  0  0  0  0  0
    3.7381   19.2496   14.7064 H   0  0  0  0  0  0
    2.5427   17.6064   16.1942 H   0  0  0  0  0  0
    3.9035   18.0536   18.1762 H   0  0  0  0  0  0
    4.8323   18.2766   16.6746 H   0  0  0  0  0  0
    4.2419   19.6939   17.5745 H   0  0  0  0  0  0
   -0.0422   17.4405   13.4358 H   0  0  0  0  0  0
    1.9667   15.4216   12.4330 H   0  0  0  0  0  0
    0.0440   13.9068   12.2480 H   0  0  0  0  0  0
   -1.0489   15.2354   12.7036 H   0  0  0  0  0  0
   -0.1340   15.3188   11.1794 H   0  0  0  0  0  0
    1.2284   14.1036   14.3725 H   0  0  0  0  0  0
    1.9963   15.6366   14.8495 H   0  0  0  0  0  0
    0.2251   15.4731   14.9065 H   0  0  0  0  0  0
   -0.7516   19.7116   12.8083 H   0  0  0  0  0  0
   -1.2548   21.1568   11.1025 H   0  0  0  0  0  0
   -2.8537   20.2917   11.1965 H   0  0  0  0  0  0
   -1.6040   20.4767    8.9063 H   0  0  0  0  0  0
   -2.2083   18.7876    9.4861 H   0  0  0  0  0  0
    0.0562   18.4106    9.0421 H   0  0  0  0  0  0
    0.5207   20.0614    9.7224 H   0  0  0  0  0  0
   -3.5003   19.5698   15.0389 H   0  0  0  0  0  0
   -1.9314   19.9529   14.3895 H   0  0  0  0  0  0
   -4.3113   17.5162   14.8672 H   0  0  0  0  0  0
   -4.7425   17.6494   13.1458 H   0  0  0  0  0  0
   -3.6762   16.3355   13.6969 H   0  0  0  0  0  0
   -1.1133   21.0044   17.8521 H   0  0  0  0  0  0
   -0.8647   20.9293   16.0916 H   0  0  0  0  0  0
   -2.5148   20.9296   16.7580 H   0  0  0  0  0  0
   -0.4365   19.6232   18.6921 H   0  0  0  0  0  0
   -1.7209   16.8607   18.5943 H   0  0  0  0  0  0
   -1.1564   16.8278   20.9991 H   0  0  0  0  0  0
    0.3099   16.9822   20.0025 H   0  0  0  0  0  0
   -0.3548   18.4081   20.8344 H   0  0  0  0  0  0
   -3.2476   17.7629   20.3062 H   0  0  0  0  0  0
   -2.4759   19.3605   20.1679 H   0  0  0  0  0  0
   -3.3909   18.6925   18.7955 H   0  0  0  0  0  0
  1  2  1  0  0  0
  1  8  1  0  0  0
  1 38  1  0  0  0
  2  3  1  0  0  0
  2  5  1  0  0  0
  2 97  1  0  0  0
  3  4  2  0  0  0
  3  9  1  0  0  0
  5  6  1  0  0  0
  5  7  1  0  0  0
  5 98  1  0  0  0
  6 35  1  0  0  0
  7 99  1  0  0  0
  7100  1  0  0  0
  7101  1  0  0  0
  9 10  1  0  0  0
  9 16  1  0  0  0
 10 11  1  0  0  0
 10 14  1  0  0  0
 10102  1  0  0  0
 11 12  1  0  0  0
 11 13  1  0  0  0
 11103  1  0  0  0
 12104  1  0  0  0
 12105  1  0  0  0
 12106  1  0  0  0
 13107  1  0  0  0
 13108  1  0  0  0
 13109  1  0  0  0
 14 15  2  0  0  0
 14 17  1  0  0  0
 17 18  1  0  0  0
 17 23  1  0  0  0
 18 19  1  0  0  0
 18 21  1  0  0  0
 18110  1  0  0  0
 19 20  2  0  0  0
 19 24  1  0  0  0
 21 22  1  0  0  0
 21111  1  0  0  0
 21112  1  0  0  0
 22 23  1  0  0  0
 22113  1  0  0  0
 22114  1  0  0  0
 23115  1  0  0  0
 23116  1  0  0  0
 24 25  1  0  0  0
 24 28  1  0  0  0
 25 26  1  0  0  0
 25117  1  0  0  0
 25118  1  0  0  0
 26 27  2  0  0  0
 26 29  1  0  0  0
 28119  1  0  0  0
 28120  1  0  0  0
 28121  1  0  0  0
 29 30  1  0  0  0
 29 31  1  0  0  0
 30122  1  0  0  0
 30123  1  0  0  0
 30124  1  0  0  0
 31 32  1  0  0  0
 31 35  1  0  0  0
 31125  1  0  0  0
 32 33  1  0  0  0
 32 34  1  0  0  0
 32126  1  0  0  0
 33127  1  0  0  0
 33128  1  0  0  0
 33129  1  0  0  0
 34130  1  0  0  0
 34131  1  0  0  0
 34132  1  0  0  0
 35 36  2  0  0  0
 37 38  1  0  0  0
 37 40  2  0  0  0
 37 53  1  0  0  0
 38 39  2  0  0  0
 40 41  1  0  0  0
 40 42  1  0  0  0
 41 59  1  0  0  0
 41 60  1  0  0  0
 42 43  2  0  0  0
 42 44  1  0  0  0
 44 54  2  0  0  0
 44 57  1  0  0  0
 45 54  1  0  0  0
 45 55  1  0  0  0
 46 47  2  0  0  0
 46 55  1  0  0  0
 46 58  1  0  0  0
 47 48  1  0  0  0
 47133  1  0  0  0
 48 49  2  0  0  0
 49 50  1  0  0  0
 49 56  1  0  0  0
 50 51  2  0  0  0
 50 61  1  0  0  0
 52 53  2  0  0  0
 52 56  1  0  0  0
 53 54  1  0  0  0
 55 56  2  0  0  0
 57134  1  0  0  0
 57135  1  0  0  0
 57136  1  0  0  0
 58137  1  0  0  0
 58138  1  0  0  0
 58139  1  0  0  0
 61 62  1  0  0  0
 61 68  1  0  0  0
 62 63  1  0  0  0
 62 65  1  0  0  0
 62140  1  0  0  0
 63 64  2  0  0  0
 63 69  1  0  0  0
 65 66  1  0  0  0
 65 67  1  0  0  0
 65141  1  0  0  0
 66 95  1  0  0  0
 67142  1  0  0  0
 67143  1  0  0  0
 67144  1  0  0  0
 69 70  1  0  0  0
 69 76  1  0  0  0
 70 71  1  0  0  0
 70 74  1  0  0  0
 70145  1  0  0  0
 71 72  1  0  0  0
 71 73  1  0  0  0
 71146  1  0  0  0
 72147  1  0  0  0
 72148  1  0  0  0
 72149  1  0  0  0
 73150  1  0  0  0
 73151  1  0  0  0
 73152  1  0  0  0
 74 75  2  0  0  0
 74 77  1  0  0  0
 77 78  1  0  0  0
 77 83  1  0  0  0
 78 79  1  0  0  0
 78 81  1  0  0  0
 78153  1  0  0  0
 79 80  2  0  0  0
 79 84  1  0  0  0
 81 82  1  0  0  0
 81154  1  0  0  0
 81155  1  0  0  0
 82 83  1  0  0  0
 82156  1  0  0  0
 82157  1  0  0  0
 83158  1  0  0  0
 83159  1  0  0  0
 84 85  1  0  0  0
 84 88  1  0  0  0
 85 86  1  0  0  0
 85160  1  0  0  0
 85161  1  0  0  0
 86 87  2  0  0  0
 86 89  1  0  0  0
 88162  1  0  0  0
 88163  1  0  0  0
 88164  1  0  0  0
 89 90  1  0  0  0
 89 91  1  0  0  0
 90165  1  0  0  0
 90166  1  0  0  0
 90167  1  0  0  0
 91 92  1  0  0  0
 91 95  1  0  0  0
 91168  1  0  0  0
 92 93  1  0  0  0
 92 94  1  0  0  0
 92169  1  0  0  0
 93170  1  0  0  0
 93171  1  0  0  0
 93172  1  0  0  0
 94173  1  0  0  0
 94174  1  0  0  0
 94175  1  0  0  0
 95 96  2  0  0  0
M  END
> <i_m_stars>
0

> <s_m_entry_id>
207

> <s_m_entry_name>
Structure207

> <s_pdb_PDB_TITLE>
STRUCTURAL, PHYSICAL AND BIOLOGICAL CHARACTERISTICS OF RNA:DNA BINDING AGENT N8-ACTINOMYCIN D

> <s_pdb_PDB_ID>
209D

> <s_pdb_PDB_CLASSIFICATION>
DNA/ANTIBIOTIC

> <s_pdb_PDB_DEPOSITION_DATE>
01-MAY-95

> <s_pdb_PDB_format_version>
3.15

> <s_pdb_PDB_EXPDTA>
X-RAY DIFFRACTION

> <r_pdb_PDB_EXPDTA_PH>
7

> <s_pdb_PDB_REMARK_350_Biomolecule_1_Chains>
A, B, C

> <s_pdb_PDB_REMARK_350_Biomolecule_1_Transformation_1>
1.000000 0.000000 0.000000   0.000000;0.000000 1.000000 0.000000   0.000000;0.000000 0.000000 1.000000   0.000000

> <s_m_Source_Path>
G:\02ReData201904034\NLData\PDBs\209D

> <s_m_Source_File>
209D.pdb

> <i_m_Source_File_Index>
1

> <s_ppw_entry_id_backup>
205

> <b_ppw_prepared>
1

> <s_ppw_prepared_with_version>
2018-3

> <b_ppw_assigned_bond_orders>
1

> <b_ppw_added_hydrogens>
1

> <b_ppw_treated_metals>
1

> <b_ppw_created_disulfur>
1

> <b_ppw_deleted_far_waters>
1

> <r_pdb_PDB_CRYST1_a>
62.3

> <r_pdb_PDB_CRYST1_b>
62.3

> <r_pdb_PDB_CRYST1_c>
42.97

> <r_pdb_PDB_CRYST1_alpha>
90

> <r_pdb_PDB_CRYST1_beta>
90

> <r_pdb_PDB_CRYST1_gamma>
120

> <s_pdb_PDB_CRYST1_Space_Group>
P 31 2 1

> <i_pdb_PDB_CRYST1_z>
12

> <r_pdb_PDB_R>
0.172999992966652

> <r_pdb_PDB_RESOLUTION>
3

$$$$
