
     RDKit          3D

175181  0  0  0  0  0  0  0  0999 V2000
   -2.9025    4.7405    2.1820 C   0  0  0  0  0  0  0  0  0  0  0  0
   -2.6653    3.4119    2.1035 N   0  0  0  0  0  0  0  0  0  0  0  0
   -1.4327    3.0442    1.6441 C   0  0  0  0  0  0  0  0  0  0  0  0
   -1.2326    1.5750    1.4885 C   0  0  0  0  0  0  0  0  0  0  0  0
   -0.1185    1.0765    1.3940 O   0  0  0  0  0  0  0  0  0  0  0  0
   -2.3880    0.8309    1.3809 N   0  0  0  0  0  0  0  0  0  0  0  0
   -2.3858   -0.3767    0.5510 C   0  0  2  0  0  0  0  0  0  0  0  0
   -3.4605   -0.3135   -0.5657 C   0  0  0  0  0  0  0  0  0  0  0  0
   -3.6313   -1.2411   -1.3624 O   0  0  0  0  0  0  0  0  0  0  0  0
   -4.2035    0.8511   -0.6254 N   0  0  0  0  0  0  0  0  0  0  0  0
   -5.3530    1.0248   -1.5026 C   0  0  2  0  0  0  0  0  0  0  0  0
   -5.0230    1.8159   -2.7933 C   0  0  0  0  0  0  0  0  0  0  0  0
   -4.3811    0.9059   -3.8440 C   0  0  0  0  0  0  0  0  0  0  0  0
   -4.1255    3.0393   -2.5580 C   0  0  0  0  0  0  0  0  0  0  0  0
   -6.4708    1.7715   -0.7066 C   0  0  0  0  0  0  0  0  0  0  0  0
   -6.1855    2.8042   -0.0793 O   0  0  0  0  0  0  0  0  0  0  0  0
   -7.7925    1.3405   -0.7983 N   0  0  0  0  0  0  0  0  0  0  0  0
   -8.7674    2.3394   -1.1584 C   0  0  0  0  0  0  0  0  0  0  0  0
   -9.2336    1.8570   -2.5445 C   0  0  0  0  0  0  0  0  0  0  0  0
   -8.6382    0.4353   -2.7213 C   0  0  0  0  0  0  0  0  0  0  0  0
   -8.3030    0.0485   -1.2957 C   0  0  1  0  0  0  0  0  0  0  0  0
   -7.4590   -1.1662   -0.8392 C   0  0  0  0  0  0  0  0  0  0  0  0
   -6.8266   -1.0660    0.2154 O   0  0  0  0  0  0  0  0  0  0  0  0
   -7.4110   -2.3189   -1.5913 N   0  0  0  0  0  0  0  0  0  0  0  0
   -8.3796   -2.6852   -2.6106 C   0  0  0  0  0  0  0  0  0  0  0  0
   -6.2939   -3.2487   -1.3658 C   0  0  0  0  0  0  0  0  0  0  0  0
   -6.6292   -4.5517   -0.6092 C   0  0  0  0  0  0  0  0  0  0  0  0
   -7.3861   -5.3788   -1.1315 O   0  0  0  0  0  0  0  0  0  0  0  0
   -6.0499   -4.7911    0.6394 N   0  0  0  0  0  0  0  0  0  0  0  0
   -5.9242   -6.1816    1.0440 C   0  0  0  0  0  0  0  0  0  0  0  0
   -5.5650   -3.7232    1.5482 C   0  0  1  0  0  0  0  0  0  0  0  0
   -6.0087   -3.7725    3.0292 C   0  0  0  0  0  0  0  0  0  0  0  0
   -5.3222   -4.8265    3.9023 C   0  0  0  0  0  0  0  0  0  0  0  0
   -7.5301   -3.8735    3.1587 C   0  0  0  0  0  0  0  0  0  0  0  0
   -4.0544   -3.4612    1.4113 C   0  0  0  0  0  0  0  0  0  0  0  0
   -3.2092   -4.3303    1.2230 O   0  0  0  0  0  0  0  0  0  0  0  0
   -3.7928   -2.1253    1.5651 O   0  0  0  0  0  0  0  0  0  0  0  0
   -2.4276   -1.7192    1.3211 C   0  0  2  0  0  0  0  0  0  0  0  0
   -1.7095   -1.6761    2.6718 C   0  0  0  0  0  0  0  0  0  0  0  0
   -0.4287    3.9318    1.2278 C   0  0  0  0  0  0  0  0  0  0  0  0
    0.8036    3.4984    0.6960 N   0  0  0  0  0  0  0  0  0  0  0  0
    1.6676    4.3847    0.3000 C   0  0  0  0  0  0  0  0  0  0  0  0
    2.9806    3.9569   -0.2681 C   0  0  0  0  0  0  0  0  0  0  0  0
    3.3815    2.5061   -0.4294 C   0  0  0  0  0  0  0  0  0  0  0  0
    4.4333    2.1776   -0.9768 O   0  0  0  0  0  0  0  0  0  0  0  0
    2.5658    1.5503    0.0998 N   0  0  0  0  0  0  0  0  0  0  0  0
    2.8883    0.1120    0.0470 C   0  0  2  0  0  0  0  0  0  0  0  0
    2.0156   -0.5110   -1.0534 C   0  0  0  0  0  0  0  0  0  0  0  0
    0.7899   -0.5881   -0.9477 O   0  0  0  0  0  0  0  0  0  0  0  0
    2.5519   -0.9016   -2.2408 N   0  0  0  0  0  0  0  0  0  0  0  0
    3.9366   -1.0744   -2.7093 C   0  0  2  0  0  0  0  0  0  0  0  0
    4.1443   -0.3584   -4.0715 C   0  0  0  0  0  0  0  0  0  0  0  0
    5.5365   -0.6366   -4.6542 C   0  0  0  0  0  0  0  0  0  0  0  0
    3.9628    1.1535   -3.9541 C   0  0  0  0  0  0  0  0  0  0  0  0
    4.0250   -2.6107   -2.9105 C   0  0  0  0  0  0  0  0  0  0  0  0
    3.2199   -3.1839   -3.6545 O   0  0  0  0  0  0  0  0  0  0  0  0
    4.9203   -3.3440   -2.1672 N   0  0  0  0  0  0  0  0  0  0  0  0
    4.9310   -4.7909   -2.2721 C   0  0  0  0  0  0  0  0  0  0  0  0
    6.0754   -5.2590   -1.3862 C   0  0  0  0  0  0  0  0  0  0  0  0
    6.1855   -4.1455   -0.3520 C   0  0  0  0  0  0  0  0  0  0  0  0
    5.8848   -2.8784   -1.1658 C   0  0  1  0  0  0  0  0  0  0  0  0
    7.1847   -2.3348   -1.8044 C   0  0  0  0  0  0  0  0  0  0  0  0
    7.4576   -2.6028   -2.9791 O   0  0  0  0  0  0  0  0  0  0  0  0
    8.0600   -1.5938   -1.0115 N   0  0  0  0  0  0  0  0  0  0  0  0
    9.2556   -1.0531   -1.6534 C   0  0  0  0  0  0  0  0  0  0  0  0
    7.8089   -1.1645    0.3681 C   0  0  0  0  0  0  0  0  0  0  0  0
    7.3602    0.3077    0.5202 C   0  0  0  0  0  0  0  0  0  0  0  0
    7.6886    1.1444   -0.3228 O   0  0  0  0  0  0  0  0  0  0  0  0
    6.6287    0.6687    1.6610 N   0  0  0  0  0  0  0  0  0  0  0  0
    6.1272    2.0414    1.7201 C   0  0  0  0  0  0  0  0  0  0  0  0
    6.2534   -0.2774    2.7496 C   0  0  1  0  0  0  0  0  0  0  0  0
    6.1785    0.3257    4.1752 C   0  0  0  0  0  0  0  0  0  0  0  0
    5.6910   -0.7028    5.2003 C   0  0  0  0  0  0  0  0  0  0  0  0
    7.5549    0.8328    4.6245 C   0  0  0  0  0  0  0  0  0  0  0  0
    4.9650   -1.0114    2.3394 C   0  0  0  0  0  0  0  0  0  0  0  0
    4.9525   -2.2248    2.1341 O   0  0  0  0  0  0  0  0  0  0  0  0
    3.9060   -0.1774    2.2246 O   0  0  0  0  0  0  0  0  0  0  0  0
    2.7042   -0.5151    1.4494 C   0  0  2  0  0  0  0  0  0  0  0  0
    2.3293   -1.9963    1.4618 C   0  0  0  0  0  0  0  0  0  0  0  0
    3.9013    4.8825   -0.6160 C   0  0  0  0  0  0  0  0  0  0  0  0
    5.1629    4.6431   -1.1217 N   0  0  0  0  0  0  0  0  0  0  0  0
    3.6046    6.3504   -0.4398 C   0  0  0  0  0  0  0  0  0  0  0  0
    4.4718    7.1901   -0.6815 O   0  0  0  0  0  0  0  0  0  0  0  0
    2.2705    6.7666    0.0277 C   0  0  0  0  0  0  0  0  0  0  0  0
    2.0338    8.2468    0.0677 C   0  0  0  0  0  0  0  0  0  0  0  0
    1.3706    5.8473    0.3947 C   0  0  0  0  0  0  0  0  0  0  0  0
    0.1403    6.2581    0.8987 O   0  0  0  0  0  0  0  0  0  0  0  0
   -0.7458    5.2898    1.3198 C   0  0  0  0  0  0  0  0  0  0  0  0
   -1.9860    5.7202    1.8180 C   0  0  0  0  0  0  0  0  0  0  0  0
   -2.3302    7.1761    1.9163 C   0  0  0  0  0  0  0  0  0  0  0  0
   -3.8885    5.0050    2.5532 H   0  0  0  0  0  0  0  0  0  0  0  0
   -3.2551    1.2407    1.7139 H   0  0  0  0  0  0  0  0  0  0  0  0
   -1.4383   -0.3685    0.0035 H   0  0  0  0  0  0  0  0  0  0  0  0
   -4.0365    1.5994    0.0419 H   0  0  0  0  0  0  0  0  0  0  0  0
   -5.6933    0.0398   -1.8000 H   0  0  0  0  0  0  0  0  0  0  0  0
   -5.9636    2.1820   -3.2223 H   0  0  0  0  0  0  0  0  0  0  0  0
   -5.0293    0.0501   -4.0654 H   0  0  0  0  0  0  0  0  0  0  0  0
   -4.2252    1.4468   -4.7819 H   0  0  0  0  0  0  0  0  0  0  0  0
   -3.4102    0.5246   -3.5086 H   0  0  0  0  0  0  0  0  0  0  0  0
   -4.5676    3.7358   -1.8350 H   0  0  0  0  0  0  0  0  0  0  0  0
   -3.1348    2.7460   -2.1924 H   0  0  0  0  0  0  0  0  0  0  0  0
   -3.9769    3.5956   -3.4955 H   0  0  0  0  0  0  0  0  0  0  0  0
   -8.3576    3.3512   -1.1897 H   0  0  0  0  0  0  0  0  0  0  0  0
   -9.5906    2.2987   -0.4319 H   0  0  0  0  0  0  0  0  0  0  0  0
  -10.3296    1.8399   -2.5893 H   0  0  0  0  0  0  0  0  0  0  0  0
   -8.8724    2.5150   -3.3361 H   0  0  0  0  0  0  0  0  0  0  0  0
   -7.7402    0.4698   -3.3444 H   0  0  0  0  0  0  0  0  0  0  0  0
   -9.3609   -0.2152   -3.2130 H   0  0  0  0  0  0  0  0  0  0  0  0
   -9.2548   -0.1113   -0.7622 H   0  0  0  0  0  0  0  0  0  0  0  0
   -9.3448   -2.2204   -2.3996 H   0  0  0  0  0  0  0  0  0  0  0  0
   -8.0086   -2.3630   -3.5860 H   0  0  0  0  0  0  0  0  0  0  0  0
   -8.5270   -3.7700   -2.6298 H   0  0  0  0  0  0  0  0  0  0  0  0
   -5.9200   -3.5437   -2.3587 H   0  0  0  0  0  0  0  0  0  0  0  0
   -5.4667   -2.7325   -0.8790 H   0  0  0  0  0  0  0  0  0  0  0  0
   -4.9477   -6.3489    1.4990 H   0  0  0  0  0  0  0  0  0  0  0  0
   -6.7256   -6.4237    1.7417 H   0  0  0  0  0  0  0  0  0  0  0  0
   -6.0085   -6.8523    0.1823 H   0  0  0  0  0  0  0  0  0  0  0  0
   -6.0350   -2.8222    1.1716 H   0  0  0  0  0  0  0  0  0  0  0  0
   -5.7263   -2.8054    3.4693 H   0  0  0  0  0  0  0  0  0  0  0  0
   -4.2340   -4.7736    3.8090 H   0  0  0  0  0  0  0  0  0  0  0  0
   -5.5716   -4.6559    4.9551 H   0  0  0  0  0  0  0  0  0  0  0  0
   -5.6446   -5.8441    3.6669 H   0  0  0  0  0  0  0  0  0  0  0  0
   -7.9154   -4.8315    2.7928 H   0  0  0  0  0  0  0  0  0  0  0  0
   -8.0197   -3.0773    2.5906 H   0  0  0  0  0  0  0  0  0  0  0  0
   -7.8375   -3.7716    4.2073 H   0  0  0  0  0  0  0  0  0  0  0  0
   -1.9254   -2.4588    0.6893 H   0  0  0  0  0  0  0  0  0  0  0  0
   -1.6852   -2.6734    3.1222 H   0  0  0  0  0  0  0  0  0  0  0  0
   -2.2448   -1.0277    3.3742 H   0  0  0  0  0  0  0  0  0  0  0  0
   -0.6780   -1.3225    2.5711 H   0  0  0  0  0  0  0  0  0  0  0  0
    1.6432    1.8026    0.4709 H   0  0  0  0  0  0  0  0  0  0  0  0
    3.9400    0.0129   -0.2267 H   0  0  0  0  0  0  0  0  0  0  0  0
    1.8522   -1.2854   -2.8679 H   0  0  0  0  0  0  0  0  0  0  0  0
    4.6513   -0.7097   -1.9780 H   0  0  0  0  0  0  0  0  0  0  0  0
    3.4029   -0.7271   -4.7914 H   0  0  0  0  0  0  0  0  0  0  0  0
    5.6927   -0.0648   -5.5760 H   0  0  0  0  0  0  0  0  0  0  0  0
    5.6651   -1.6959   -4.8954 H   0  0  0  0  0  0  0  0  0  0  0  0
    6.3161   -0.3435   -3.9437 H   0  0  0  0  0  0  0  0  0  0  0  0
    3.9905    1.6159   -4.9496 H   0  0  0  0  0  0  0  0  0  0  0  0
    3.0087    1.4180   -3.4940 H   0  0  0  0  0  0  0  0  0  0  0  0
    4.7744    1.5965   -3.3668 H   0  0  0  0  0  0  0  0  0  0  0  0
    3.9675   -5.1676   -1.9016 H   0  0  0  0  0  0  0  0  0  0  0  0
    5.0491   -5.1088   -3.3157 H   0  0  0  0  0  0  0  0  0  0  0  0
    5.8916   -6.2461   -0.9381 H   0  0  0  0  0  0  0  0  0  0  0  0
    7.0064   -5.3224   -1.9714 H   0  0  0  0  0  0  0  0  0  0  0  0
    5.4115   -4.2945    0.4123 H   0  0  0  0  0  0  0  0  0  0  0  0
    7.1625   -4.1443    0.1425 H   0  0  0  0  0  0  0  0  0  0  0  0
    5.4212   -2.1020   -0.5525 H   0  0  0  0  0  0  0  0  0  0  0  0
    9.5933   -1.6976   -2.4744 H   0  0  0  0  0  0  0  0  0  0  0  0
    9.0212   -0.0636   -2.0639 H   0  0  0  0  0  0  0  0  0  0  0  0
   10.0640   -0.9689   -0.9177 H   0  0  0  0  0  0  0  0  0  0  0  0
    7.0739   -1.8319    0.8050 H   0  0  0  0  0  0  0  0  0  0  0  0
    8.7340   -1.2904    0.9363 H   0  0  0  0  0  0  0  0  0  0  0  0
    6.3213    2.5963    0.8024 H   0  0  0  0  0  0  0  0  0  0  0  0
    5.0511    2.0333    1.9009 H   0  0  0  0  0  0  0  0  0  0  0  0
    6.6186    2.5781    2.5328 H   0  0  0  0  0  0  0  0  0  0  0  0
    7.0345   -1.0500    2.7797 H   0  0  0  0  0  0  0  0  0  0  0  0
    5.4788    1.1648    4.1886 H   0  0  0  0  0  0  0  0  0  0  0  0
    6.2904   -1.6146    5.1648 H   0  0  0  0  0  0  0  0  0  0  0  0
    5.7546   -0.2970    6.2146 H   0  0  0  0  0  0  0  0  0  0  0  0
    4.6461   -0.9775    5.0194 H   0  0  0  0  0  0  0  0  0  0  0  0
    8.2845    0.0142    4.6845 H   0  0  0  0  0  0  0  0  0  0  0  0
    7.9673    1.5919    3.9459 H   0  0  0  0  0  0  0  0  0  0  0  0
    7.4853    1.2940    5.6177 H   0  0  0  0  0  0  0  0  0  0  0  0
    1.9068    0.0037    1.9889 H   0  0  0  0  0  0  0  0  0  0  0  0
    1.2979   -2.1420    1.1269 H   0  0  0  0  0  0  0  0  0  0  0  0
    2.9715   -2.5850    0.7999 H   0  0  0  0  0  0  0  0  0  0  0  0
    2.4107   -2.4107    2.4715 H   0  0  0  0  0  0  0  0  0  0  0  0
    5.4690    3.6815   -1.2889 H   0  0  0  0  0  0  0  0  0  0  0  0
    5.7967    5.4292   -1.2740 H   0  0  0  0  0  0  0  0  0  0  0  0
    2.2773    8.7005   -0.9033 H   0  0  0  0  0  0  0  0  0  0  0  0
    2.6671    8.7100    0.8269 H   0  0  0  0  0  0  0  0  0  0  0  0
    0.9909    8.5041    0.2847 H   0  0  0  0  0  0  0  0  0  0  0  0
   -1.5339    7.7265    2.4323 H   0  0  0  0  0  0  0  0  0  0  0  0
   -2.4732    7.5980    0.9181 H   0  0  0  0  0  0  0  0  0  0  0  0
   -3.2528    7.3309    2.4858 H   0  0  0  0  0  0  0  0  0  0  0  0
  1  2  2  0
  2  3  1  0
  3  4  1  0
  4  5  2  0
  4  6  1  0
  6  7  1  0
  7  8  1  0
  8  9  2  0
  8 10  1  0
 10 11  1  0
 11 12  1  0
 12 13  1  0
 12 14  1  0
 11 15  1  0
 15 16  2  0
 15 17  1  0
 17 18  1  0
 18 19  1  0
 19 20  1  0
 20 21  1  0
 21 22  1  0
 22 23  2  0
 22 24  1  0
 24 25  1  0
 24 26  1  0
 26 27  1  0
 27 28  2  0
 27 29  1  0
 29 30  1  0
 29 31  1  0
 31 32  1  0
 32 33  1  0
 32 34  1  0
 31 35  1  0
 35 36  2  0
 35 37  1  0
 37 38  1  0
 38 39  1  0
  3 40  2  0
 40 41  1  0
 41 42  2  0
 42 43  1  0
 43 44  1  0
 44 45  2  0
 44 46  1  0
 46 47  1  0
 47 48  1  0
 48 49  2  0
 48 50  1  0
 50 51  1  0
 51 52  1  0
 52 53  1  0
 52 54  1  0
 51 55  1  0
 55 56  2  0
 55 57  1  0
 57 58  1  0
 58 59  1  0
 59 60  1  0
 60 61  1  0
 61 62  1  0
 62 63  2  0
 62 64  1  0
 64 65  1  0
 64 66  1  0
 66 67  1  0
 67 68  2  0
 67 69  1  0
 69 70  1  0
 69 71  1  0
 71 72  1  0
 72 73  1  0
 72 74  1  0
 71 75  1  0
 75 76  2  0
 75 77  1  0
 77 78  1  0
 78 79  1  0
 43 80  2  0
 80 81  1  0
 80 82  1  0
 82 83  2  0
 82 84  1  0
 84 85  1  0
 84 86  2  0
 86 87  1  0
 87 88  1  0
 88 89  2  0
 89 90  1  0
 89  1  1  0
 38  7  1  0
 88 40  1  0
 21 17  1  0
 86 42  1  0
 78 47  1  0
 61 57  1  0
  1 91  1  0
  6 92  1  0
  7 93  1  6
 10 94  1  0
 11 95  1  6
 12 96  1  0
 13 97  1  0
 13 98  1  0
 13 99  1  0
 14100  1  0
 14101  1  0
 14102  1  0
 18103  1  0
 18104  1  0
 19105  1  0
 19106  1  0
 20107  1  0
 20108  1  0
 21109  1  1
 25110  1  0
 25111  1  0
 25112  1  0
 26113  1  0
 26114  1  0
 30115  1  0
 30116  1  0
 30117  1  0
 31118  1  6
 32119  1  0
 33120  1  0
 33121  1  0
 33122  1  0
 34123  1  0
 34124  1  0
 34125  1  0
 38126  1  6
 39127  1  0
 39128  1  0
 39129  1  0
 46130  1  0
 47131  1  6
 50132  1  0
 51133  1  1
 52134  1  0
 53135  1  0
 53136  1  0
 53137  1  0
 54138  1  0
 54139  1  0
 54140  1  0
 58141  1  0
 58142  1  0
 59143  1  0
 59144  1  0
 60145  1  0
 60146  1  0
 61147  1  1
 65148  1  0
 65149  1  0
 65150  1  0
 66151  1  0
 66152  1  0
 70153  1  0
 70154  1  0
 70155  1  0
 71156  1  1
 72157  1  0
 73158  1  0
 73159  1  0
 73160  1  0
 74161  1  0
 74162  1  0
 74163  1  0
 78164  1  1
 79165  1  0
 79166  1  0
 79167  1  0
 81168  1  0
 81169  1  0
 85170  1  0
 85171  1  0
 85172  1  0
 90173  1  0
 90174  1  0
 90175  1  0
M  END
$$$$
