@<TRIPOS>MOLECULE
MOL
   59    60     1     0     0
SMALL
bcc


@<TRIPOS>ATOM
      1 C1          12.3930    16.8960    85.4860 cz         1 MOL       0.530300
      2 N1          13.6800    16.9250    85.6670 nv         1 MOL      -0.519100
      3 N2          11.6060    16.6400    86.5430 nv         1 MOL      -0.503200
      4 N3          11.8410    17.0730    84.3090 nu         1 MOL      -0.381200
      5 C2          12.2970    17.4860    83.0580 c3         1 MOL      -0.059700
      6 C3          11.0050    17.7950    82.2490 c          1 MOL       0.654100
      7 O1          10.1230    16.9210    82.2820 o          1 MOL      -0.594100
      8 N4          10.9740    18.9340    81.6140 ns         1 MOL      -0.405100
      9 C4           9.9300    19.4990    80.8450 cc         1 MOL      -0.075400
     10 C5          10.1790    20.4530    79.9150 cc         1 MOL      -0.169000
     11 C6           8.9890    20.8320    79.3460 cd         1 MOL      -0.172900
     12 N5           8.0190    20.1060    79.9620 na         1 MOL       0.002900
     13 C7           6.5560    20.0810    79.7740 c3         1 MOL       0.009600
     14 C8           8.5990    19.2890    80.9180 cd         1 MOL      -0.112300
     15 C9           8.7040    21.7850    78.2500 c          1 MOL       0.709700
     16 O2           7.5600    22.2140    77.9950 o          1 MOL      -0.603100
     17 N6           9.6930    22.2270    77.4470 ns         1 MOL      -0.438100
     18 C10          9.4250    23.1260    76.3300 cc         1 MOL      -0.029400
     19 C11         10.3860    23.4850    75.3670 cc         1 MOL      -0.161000
     20 C12          9.7950    24.2900    74.4040 cd         1 MOL      -0.221900
     21 N7           8.4390    24.4090    74.8790 na         1 MOL       0.006900
     22 C13          7.4170    25.2100    74.2230 c3         1 MOL       0.012600
     23 C14          8.2560    23.7160    75.9890 cd         1 MOL      -0.103300
     24 C15         10.1080    25.0450    73.2340 c          1 MOL       0.718700
     25 O3           9.4530    26.0930    72.9390 o          1 MOL      -0.663100
     26 N8          11.0990    24.7810    72.3570 ns         1 MOL      -0.575900
     27 C16         11.1550    25.7210    71.1470 c3         1 MOL       0.079000
     28 C17         12.4220    25.9240    70.4510 c3         1 MOL      -0.182700
     29 C18         13.0560    24.6820    69.8430 c2         1 MOL       0.454800
     30 N9          14.2030    24.7680    69.1740 nv         1 MOL      -0.467600
     31 N10         12.4850    23.5220    70.0030 nv         1 MOL      -0.451700
     32 H1          14.2950    17.1150    84.8890 hn         1 MOL       0.329700
     33 H2          14.0650    16.7570    86.5860 hn         1 MOL       0.329700
     34 H3          10.6030    16.6120    86.4300 hn         1 MOL       0.329700
     35 H4          12.0170    16.4760    87.4510 hn         1 MOL       0.329700
     36 H5          10.8550    16.8930    84.1810 hn         1 MOL       0.353700
     37 H6          12.8350    16.6660    82.5810 h1         1 MOL       0.084700
     38 H7          12.8800    18.4000    83.1700 h1         1 MOL       0.084700
     39 H8          11.7770    19.5460    81.6350 hn         1 MOL       0.329500
     40 H9          11.1920    20.7820    79.7370 ha         1 MOL       0.154000
     41 H10          6.1130    19.3600    80.4620 h1         1 MOL       0.076700
     42 H11          6.1470    21.0710    79.9730 h1         1 MOL       0.076700
     43 H12          6.3260    19.7930    78.7480 h1         1 MOL       0.076700
     44 H13          8.2020    18.5860    81.6360 h4         1 MOL       0.210000
     45 H14         10.6460    21.9360    77.6120 hn         1 MOL       0.326500
     46 H15         11.4020    23.1310    75.4600 ha         1 MOL       0.149000
     47 H16          6.4820    25.1330    74.7780 h1         1 MOL       0.073367
     48 H17          7.7350    26.2520    74.1920 h1         1 MOL       0.073367
     49 H18          7.2670    24.8460    73.2060 h1         1 MOL       0.073367
     50 H19          7.3790    23.5720    76.6030 h4         1 MOL       0.220000
     51 H20         11.7320    24.0120    72.5260 hn         1 MOL       0.321500
     52 H21         10.7480    26.6910    71.4320 h1         1 MOL       0.085700
     53 H22         10.3990    25.4150    70.4240 h1         1 MOL       0.085700
     54 H23         13.1330    26.3950    71.1290 hc         1 MOL       0.107700
     55 H24         12.2890    26.6770    69.6740 hc         1 MOL       0.107700
     56 H25         14.6170    23.9390    68.7730 hn         1 MOL       0.331450
     57 H26         14.6590    25.6630    69.0670 hn         1 MOL       0.331450
     58 H27         12.9020    22.6940    69.6010 hn         1 MOL       0.331450
     59 H28         11.6260    23.4500    70.5290 hn         1 MOL       0.331450
@<TRIPOS>BOND
     1     1     2 2   
     2     1     3 1   
     3     1     4 1   
     4     2    32 1   
     5     2    33 1   
     6     3    34 1   
     7     3    35 1   
     8     4     5 1   
     9     4    36 1   
    10     5     6 1   
    11     5    37 1   
    12     5    38 1   
    13     6     7 2   
    14     6     8 1   
    15     8     9 1   
    16     8    39 1   
    17     9    10 1   
    18     9    14 2   
    19    10    11 2   
    20    10    40 1   
    21    11    12 1   
    22    11    15 1   
    23    12    13 1   
    24    12    14 1   
    25    13    41 1   
    26    13    42 1   
    27    13    43 1   
    28    14    44 1   
    29    15    16 2   
    30    15    17 1   
    31    17    18 1   
    32    17    45 1   
    33    18    19 1   
    34    18    23 2   
    35    19    20 2   
    36    19    46 1   
    37    20    21 1   
    38    20    24 1   
    39    21    22 1   
    40    21    23 1   
    41    22    47 1   
    42    22    48 1   
    43    22    49 1   
    44    23    50 1   
    45    24    25 2   
    46    24    26 1   
    47    26    27 1   
    48    26    51 1   
    49    27    28 1   
    50    27    52 1   
    51    27    53 1   
    52    28    29 1   
    53    28    54 1   
    54    28    55 1   
    55    29    30 2   
    56    29    31 1   
    57    30    56 1   
    58    30    57 1   
    59    31    58 1   
    60    31    59 1   
@<TRIPOS>SUBSTRUCTURE
     1 MOL         1 TEMP              0 ****  ****    0 ROOT
