
                    3D
 Schrodinger Suite 2021-1.
 59 60  0  0  1  0            999 V2000
   12.3930   16.8960   85.4860 C   0  0  0  0  0  0
   13.6800   16.9250   85.6670 N   0  3  0  0  0  0
   11.6060   16.6400   86.5430 N   0  0  0  0  0  0
   11.8410   17.0730   84.3090 N   0  0  0  0  0  0
   12.2970   17.4860   83.0580 C   0  0  0  0  0  0
   11.0050   17.7950   82.2490 C   0  0  0  0  0  0
   10.1230   16.9210   82.2820 O   0  0  0  0  0  0
   10.9740   18.9340   81.6140 N   0  0  0  0  0  0
    9.9300   19.4990   80.8450 C   0  0  0  0  0  0
   10.1790   20.4530   79.9150 C   0  0  0  0  0  0
    8.9890   20.8320   79.3460 C   0  0  0  0  0  0
    8.0190   20.1060   79.9620 N   0  0  0  0  0  0
    6.5560   20.0810   79.7740 C   0  0  0  0  0  0
    8.5990   19.2890   80.9180 C   0  0  0  0  0  0
    8.7040   21.7850   78.2500 C   0  0  0  0  0  0
    7.5600   22.2140   77.9950 O   0  0  0  0  0  0
    9.6930   22.2270   77.4470 N   0  0  0  0  0  0
    9.4250   23.1260   76.3300 C   0  0  0  0  0  0
   10.3860   23.4850   75.3670 C   0  0  0  0  0  0
    9.7950   24.2900   74.4040 C   0  0  0  0  0  0
    8.4390   24.4090   74.8790 N   0  0  0  0  0  0
    7.4170   25.2100   74.2230 C   0  0  0  0  0  0
    8.2560   23.7160   75.9890 C   0  0  0  0  0  0
   10.1080   25.0450   73.2340 C   0  0  0  0  0  0
    9.4530   26.0930   72.9390 O   0  0  0  0  0  0
   11.0990   24.7810   72.3570 N   0  0  0  0  0  0
   11.1550   25.7210   71.1470 C   0  0  0  0  0  0
   12.4220   25.9240   70.4510 C   0  0  0  0  0  0
   13.0560   24.6820   69.8430 C   0  0  0  0  0  0
   14.2030   24.7680   69.1740 N   0  3  0  0  0  0
   12.4850   23.5220   70.0030 N   0  0  0  0  0  0
   14.2952   17.1153   84.8889 H   0  0  0  0  0  0
   14.0647   16.7572   86.5857 H   0  0  0  0  0  0
   10.6027   16.6116   86.4305 H   0  0  0  0  0  0
   12.0172   16.4758   87.4508 H   0  0  0  0  0  0
   10.8555   16.8926   84.1811 H   0  0  0  0  0  0
   12.8345   16.6665   82.5809 H   0  0  0  0  0  0
   12.8803   18.4000   83.1699 H   0  0  0  0  0  0
   11.7773   19.5458   81.6348 H   0  0  0  0  0  0
   11.1920   20.7825   79.7373 H   0  0  0  0  0  0
    6.1131   19.3604   80.4615 H   0  0  0  0  0  0
    6.1466   21.0714   79.9731 H   0  0  0  0  0  0
    6.3258   19.7927   78.7483 H   0  0  0  0  0  0
    8.2017   18.5864   81.6356 H   0  0  0  0  0  0
   10.6459   21.9360   77.6124 H   0  0  0  0  0  0
   11.4022   23.1314   75.4603 H   0  0  0  0  0  0
    6.4821   25.1325   74.7780 H   0  0  0  0  0  0
    7.7354   26.2520   74.1924 H   0  0  0  0  0  0
    7.2667   24.8465   73.2064 H   0  0  0  0  0  0
    7.3791   23.5716   76.6027 H   0  0  0  0  0  0
   11.7318   24.0122   72.5264 H   0  0  0  0  0  0
   10.7476   26.6909   71.4322 H   0  0  0  0  0  0
   10.3985   25.4146   70.4245 H   0  0  0  0  0  0
   13.1333   26.3955   71.1292 H   0  0  0  0  0  0
   12.2888   26.6768   69.6740 H   0  0  0  0  0  0
   14.6174   23.9386   68.7734 H   0  0  0  0  0  0
   14.6593   25.6627   69.0668 H   0  0  0  0  0  0
   12.9018   22.6943   69.6014 H   0  0  0  0  0  0
   11.6255   23.4504   70.5286 H   0  0  0  0  0  0
  1  2  2  0  0  0
  1  3  1  0  0  0
  1  4  1  0  0  0
  2 32  1  0  0  0
  2 33  1  0  0  0
  3 34  1  0  0  0
  3 35  1  0  0  0
  4  5  1  0  0  0
  4 36  1  0  0  0
  5  6  1  0  0  0
  5 37  1  0  0  0
  5 38  1  0  0  0
  6  7  2  0  0  0
  6  8  1  0  0  0
  8  9  1  0  0  0
  8 39  1  0  0  0
  9 10  1  0  0  0
  9 14  2  0  0  0
 10 11  2  0  0  0
 10 40  1  0  0  0
 11 12  1  0  0  0
 11 15  1  0  0  0
 12 13  1  0  0  0
 12 14  1  0  0  0
 13 41  1  0  0  0
 13 42  1  0  0  0
 13 43  1  0  0  0
 14 44  1  0  0  0
 15 16  2  0  0  0
 15 17  1  0  0  0
 17 18  1  0  0  0
 17 45  1  0  0  0
 18 19  1  0  0  0
 18 23  2  0  0  0
 19 20  2  0  0  0
 19 46  1  0  0  0
 20 21  1  0  0  0
 20 24  1  0  0  0
 21 22  1  0  0  0
 21 23  1  0  0  0
 22 47  1  0  0  0
 22 48  1  0  0  0
 22 49  1  0  0  0
 23 50  1  0  0  0
 24 25  2  0  0  0
 24 26  1  0  0  0
 26 27  1  0  0  0
 26 51  1  0  0  0
 27 28  1  0  0  0
 27 52  1  0  0  0
 27 53  1  0  0  0
 28 29  1  0  0  0
 28 54  1  0  0  0
 28 55  1  0  0  0
 29 30  2  0  0  0
 29 31  1  0  0  0
 30 56  1  0  0  0
 30 57  1  0  0  0
 31 58  1  0  0  0
 31 59  1  0  0  0
M  CHG  2   2   1  30   1
M  END
> <s_pdb_PDB_format_version>
3.0

> <b_ppw_prepared>
1

> <s_ppw_prepared_with_version>
2021-1

> <s_ppw_het_states>
eJxNkksOwjAQQ68SZR1Qxkl/XKXqDRA7Voi7Mw7jqiywPYQXM/STLT/S7i8rqR4l7SjJqC1yD51C59AldA3dQq3KiGiQEdMENVFNWBPXBDaRITLOriJDZIgMkSEyRIbIELlV/ehBpuM+nI7RoKQWB9z2sK5TWNc5rOsSX3O7xtR1C0utF991CYem4Mb0T4ygq8a0XYP6jCOzAAyLPqFRlWG2S+DuoEVzx9CyuWc7g+7hFLgG1eER7h1n0FZooDo0UB0aqA5NOxswjAaebvXu809uqz+u7mv1Brl3Jb8sT9UTD35Ler2fz//7cXx/mK6aLA==

$$$$
