@<TRIPOS>MOLECULE
MOL
   45    47     1     0     0
SMALL
bcc


@<TRIPOS>ATOM
      1 C1          -6.1350    -3.5530    13.6850 ca         1 MOL      -0.112000
      2 C2          -7.1370    -4.2610    14.3380 ca         1 MOL      -0.116000
      3 C3          -8.4590    -3.8410    14.2440 ca         1 MOL      -0.092000
      4 C4          -8.7790    -2.7140    13.4960 ca         1 MOL      -0.116000
      5 C5          -7.7770    -2.0070    12.8430 ca         1 MOL      -0.112000
      6 C6          -6.4550    -2.4270    12.9370 ca         1 MOL      -0.145300
      7 C7          -5.4510    -1.7100    12.2950 c3         1 MOL      -0.063100
      8 C8          -5.6410    -1.8050    10.7800 c3         1 MOL       0.211700
      9 C9          -5.7810    -3.2730    10.3730 c          1 MOL       1.023600
     10 O1          -6.9410    -3.7280    10.2750 o          1 MOL      -0.485300
     11 O2          -4.7240    -3.9080    10.1690 o          1 MOL      -0.485300
     12 N1          -4.4790    -1.2160    10.1010 ns         1 MOL      -0.379900
     13 C10         -4.2950     0.1110    10.0570 c          1 MOL       0.693700
     14 O3          -5.1120     0.9330    10.4700 o          1 MOL      -0.475100
     15 C11         -3.0930     0.5200     9.4920 ca         1 MOL      -0.238600
     16 C12         -1.8990     0.3270    10.1790 ca         1 MOL       0.008000
     17 C13         -0.7060     0.7930     9.6410 ca         1 MOL      -0.044600
     18 Cl1          0.7810     0.4990    10.4640 cl         1 MOL      -0.023400
     19 C14         -0.7060     1.4850     8.4350 ca         1 MOL       0.073700
     20 C15          0.4560     2.1240     8.0160 c3         1 MOL      -0.103100
     21 C16          0.1550     3.0170     6.8250 c3         1 MOL       0.148100
     22 C17          1.4660     3.4560     6.1690 c3         1 MOL      -0.102100
     23 O4          -0.6350     2.2870     5.8760 os         1 MOL      -0.374900
     24 C18         -1.8720     2.0740     6.3990 c          1 MOL       0.745200
     25 O5          -2.9190     2.2630     5.7820 o          1 MOL      -0.604500
     26 C19         -1.8910     1.6170     7.7120 ca         1 MOL      -0.257600
     27 C20         -3.0810     1.1420     8.2510 ca         1 MOL       0.263100
     28 O6          -3.9500     0.6090     7.3500 oh         1 MOL      -0.535100
     29 H1          -5.1080    -3.8780    13.7590 ha         1 MOL       0.135500
     30 H2          -6.8890    -5.1370    14.9180 ha         1 MOL       0.154500
     31 H3          -9.2380    -4.3900    14.7520 ha         1 MOL       0.156000
     32 H4          -9.8060    -2.3880    13.4230 ha         1 MOL       0.154500
     33 H5          -8.0250    -1.1310    12.2620 ha         1 MOL       0.135500
     34 H6          -4.4790    -2.1240    12.5660 hc         1 MOL       0.116700
     35 H7          -5.4980    -0.6650    12.6020 hc         1 MOL       0.116700
     36 H8          -6.5420    -1.2620    10.4930 h1         1 MOL       0.176700
     37 H9          -3.8110    -1.8330     9.6620 hn         1 MOL       0.390500
     38 H10         -1.9000    -0.1850    11.1300 ha         1 MOL       0.185000
     39 H11          1.1980     1.3780     7.7320 hc         1 MOL       0.104200
     40 H12          0.8520     2.7280     8.8320 hc         1 MOL       0.104200
     41 H13         -0.3970     3.8960     7.1590 h1         1 MOL       0.069700
     42 H14          1.2480     4.0970     5.3140 hc         1 MOL       0.066033
     43 H15          2.0680     4.0070     6.8920 hc         1 MOL       0.066033
     44 H16          2.0170     2.5780     5.8330 hc         1 MOL       0.066033
     45 H17         -3.8850     1.0880     6.5210 ho         1 MOL       0.500000
@<TRIPOS>BOND
     1     1     2 ar  
     2     1     6 ar  
     3     1    29 1   
     4     2     3 ar  
     5     2    30 1   
     6     3     4 ar  
     7     3    31 1   
     8     4     5 ar  
     9     4    32 1   
    10     5     6 ar  
    11     5    33 1   
    12     6     7 1   
    13     7     8 1   
    14     7    34 1   
    15     7    35 1   
    16     8     9 1   
    17     8    12 1   
    18     8    36 1   
    19     9    10 1   
    20     9    11 1   
    21    12    13 1   
    22    12    37 1   
    23    13    14 2   
    24    13    15 1   
    25    15    16 ar  
    26    15    27 ar  
    27    16    17 ar  
    28    16    38 1   
    29    17    18 1   
    30    17    19 ar  
    31    19    20 1   
    32    19    26 ar  
    33    20    21 1   
    34    20    39 1   
    35    20    40 1   
    36    21    22 1   
    37    21    23 1   
    38    21    41 1   
    39    22    42 1   
    40    22    43 1   
    41    22    44 1   
    42    23    24 1   
    43    24    25 2   
    44    24    26 1   
    45    26    27 ar  
    46    27    28 1   
    47    28    45 1   
@<TRIPOS>SUBSTRUCTURE
     1 MOL         1 TEMP              0 ****  ****    0 ROOT
