
                    3D
 Schrodinger Suite 2021-1.
 45 47  0  0  1  0            999 V2000
   -6.1350   -3.5530   13.6850 C   0  0  0  0  0  0
   -7.1370   -4.2610   14.3380 C   0  0  0  0  0  0
   -8.4590   -3.8410   14.2440 C   0  0  0  0  0  0
   -8.7790   -2.7140   13.4960 C   0  0  0  0  0  0
   -7.7770   -2.0070   12.8430 C   0  0  0  0  0  0
   -6.4550   -2.4270   12.9370 C   0  0  0  0  0  0
   -5.4510   -1.7100   12.2950 C   0  0  0  0  0  0
   -5.6410   -1.8050   10.7800 C   0  0  2  0  0  0
   -5.7810   -3.2730   10.3730 C   0  0  0  0  0  0
   -6.9410   -3.7280   10.2750 O   0  5  0  0  0  0
   -4.7240   -3.9080   10.1690 O   0  0  0  0  0  0
   -4.4790   -1.2160   10.1010 N   0  0  0  0  0  0
   -4.2950    0.1110   10.0570 C   0  0  0  0  0  0
   -5.1120    0.9330   10.4700 O   0  0  0  0  0  0
   -3.0930    0.5200    9.4920 C   0  0  0  0  0  0
   -1.8990    0.3270   10.1790 C   0  0  0  0  0  0
   -0.7060    0.7930    9.6410 C   0  0  0  0  0  0
    0.7810    0.4990   10.4640 Cl  0  0  0  0  0  0
   -0.7060    1.4850    8.4350 C   0  0  0  0  0  0
    0.4560    2.1240    8.0160 C   0  0  0  0  0  0
    0.1550    3.0170    6.8250 C   0  0  1  0  0  0
    1.4660    3.4560    6.1690 C   0  0  0  0  0  0
   -0.6350    2.2870    5.8760 O   0  0  0  0  0  0
   -1.8720    2.0740    6.3990 C   0  0  0  0  0  0
   -2.9190    2.2630    5.7820 O   0  0  0  0  0  0
   -1.8910    1.6170    7.7120 C   0  0  0  0  0  0
   -3.0810    1.1420    8.2510 C   0  0  0  0  0  0
   -3.9500    0.6090    7.3500 O   0  0  0  0  0  0
   -5.1078   -3.8783   13.7592 H   0  0  0  0  0  0
   -6.8886   -5.1373   14.9184 H   0  0  0  0  0  0
   -9.2376   -4.3904   14.7522 H   0  0  0  0  0  0
   -9.8061   -2.3883   13.4226 H   0  0  0  0  0  0
   -8.0249   -1.1309   12.2622 H   0  0  0  0  0  0
   -4.4795   -2.1236   12.5657 H   0  0  0  0  0  0
   -5.4979   -0.6652   12.6020 H   0  0  0  0  0  0
   -6.5416   -1.2622   10.4932 H   0  0  0  0  0  0
   -3.8112   -1.8333    9.6616 H   0  0  0  0  0  0
   -1.8998   -0.1848   11.1300 H   0  0  0  0  0  0
    1.1983    1.3781    7.7321 H   0  0  0  0  0  0
    0.8524    2.7284    8.8319 H   0  0  0  0  0  0
   -0.3970    3.8955    7.1590 H   0  0  0  0  0  0
    1.2485    4.0968    5.3145 H   0  0  0  0  0  0
    2.0679    4.0069    6.8917 H   0  0  0  0  0  0
    2.0167    2.5775    5.8329 H   0  0  0  0  0  0
   -3.8855    1.0880    6.5206 H   0  0  0  0  0  0
  1  2  2  0  0  0
  1  6  1  0  0  0
  1 29  1  0  0  0
  2  3  1  0  0  0
  2 30  1  0  0  0
  3  4  2  0  0  0
  3 31  1  0  0  0
  4  5  1  0  0  0
  4 32  1  0  0  0
  5  6  2  0  0  0
  5 33  1  0  0  0
  6  7  1  0  0  0
  7  8  1  0  0  0
  7 34  1  0  0  0
  7 35  1  0  0  0
  8  9  1  0  0  0
  8 12  1  0  0  0
  8 36  1  0  0  0
  9 10  1  0  0  0
  9 11  2  0  0  0
 12 13  1  0  0  0
 12 37  1  0  0  0
 13 14  2  0  0  0
 13 15  1  0  0  0
 15 16  2  0  0  0
 15 27  1  0  0  0
 16 17  1  0  0  0
 16 38  1  0  0  0
 17 18  1  0  0  0
 17 19  2  0  0  0
 19 20  1  0  0  0
 19 26  1  0  0  0
 20 21  1  0  0  0
 20 39  1  0  0  0
 20 40  1  0  0  0
 21 22  1  0  0  0
 21 23  1  0  0  0
 21 41  1  0  0  0
 22 42  1  0  0  0
 22 43  1  0  0  0
 22 44  1  0  0  0
 23 24  1  0  0  0
 24 25  2  0  0  0
 24 26  1  0  0  0
 26 27  2  0  0  0
 27 28  1  0  0  0
 28 45  1  0  0  0
M  CHG  1  10  -1
M  END
> <i_pdb_PDB_Model>
1

> <s_pdb_PDB_format_version>
3.0

> <b_ppw_prepared>
1

> <s_ppw_prepared_with_version>
2021-1

> <s_ppw_het_states>
eJztUkESgkAM+8oO58UhXZDFrzD+wPHmieHvtrVZ8QUelANJOkvaDd06dJe06oOchmtOqwSWwDFwCjwHzoE1cAnEkFMPZ7QEPUFT0BW0BX1BY9AZtJaBpA1LZ6Gz0FnoLHQWOos7G7Nbq4V4m5z0JCKDElRxjAOKU1QnPyuRxxxVxRpUcXlTCwARkuXTONjbDrClEzZ1wbZO2NiEsLVV0YSRehQLvzHCAVy0K2vVYgXzFTkKzmbEIgaztpilieZ2fs0mzF18HFXDCbOJrStVN8/lsud0f9xur7f/l19bxx7/ffzSPlaM5bCPKvG5j9f9CWbyE+4=

$$$$
