@<TRIPOS>MOLECULE
MOL
   44    43     1     0     0
SMALL
bcc


@<TRIPOS>ATOM
      1 N1          28.9370    25.6680     1.2120 nz         1 MOL      -0.837600
      2 C1          29.2540    26.5750     2.3740 c3         1 MOL       0.105800
      3 C2          28.0460    27.3920     2.7340 c3         1 MOL      -0.138400
      4 C3          27.5350    28.8010     2.4780 c3         1 MOL       0.108800
      5 N2          27.7950    30.1350     1.9830 ny         1 MOL      -0.764000
      6 C4          28.0000    29.5950     0.5580 c3         1 MOL       0.107800
      7 C5          26.8990    28.5750     0.0800 c3         1 MOL      -0.106400
      8 C6          25.9610    29.8030    -0.0180 c3         1 MOL      -0.106400
      9 C7          24.5930    30.0740    -0.6590 c3         1 MOL       0.107800
     10 N3          23.5860    29.8470     0.3580 ny         1 MOL      -0.764000
     11 C8          24.1630    29.5500     1.7740 c3         1 MOL       0.108800
     12 C9          22.7680    29.5450     2.4900 c3         1 MOL      -0.138400
     13 C10         22.2870    30.6620     3.0420 c3         1 MOL       0.105800
     14 N4          22.7230    31.7740     2.5850 nz         1 MOL      -0.837600
     15 H1          29.7540    25.1230     0.9770 hn         1 MOL       0.485467
     16 H2          28.1810    25.0480     1.4650 hn         1 MOL       0.485467
     17 H3          28.6630    26.2240     0.4150 hn         1 MOL       0.485467
     18 H4          30.0740    27.2400     2.1030 hx         1 MOL       0.131700
     19 H5          29.5550    25.9740     3.2320 hx         1 MOL       0.131700
     20 H6          27.8470    27.1860     3.7860 hc         1 MOL       0.098700
     21 H7          27.1880    26.7330     2.6040 hc         1 MOL       0.098700
     22 H8          26.8870    28.9830     3.3350 hx         1 MOL       0.127700
     23 H9          26.4970    28.6340     2.1890 hx         1 MOL       0.127700
     24 H10         28.6950    30.4270     2.3370 hn         1 MOL       0.464800
     25 H11         26.9240    30.6470     1.9990 hn         1 MOL       0.464800
     26 H12         28.9820    29.1260     0.4870 hx         1 MOL       0.122700
     27 H13         28.0470    30.4300    -0.1410 hx         1 MOL       0.122700
     28 H14         26.5890    28.0080     0.9580 hc         1 MOL       0.087700
     29 H15         27.1540    28.2880    -0.9400 hc         1 MOL       0.087700
     30 H16         26.5930    30.6570    -0.2620 hc         1 MOL       0.087700
     31 H17         25.9330    30.2520     0.9750 hc         1 MOL       0.087700
     32 H18         24.4360    29.3810    -1.4860 hx         1 MOL       0.122700
     33 H19         24.5470    31.1110    -0.9900 hx         1 MOL       0.122700
     34 H20         22.9890    29.0840     0.0730 hn         1 MOL       0.464800
     35 H21         22.9740    30.6490     0.4070 hn         1 MOL       0.464800
     36 H22         24.7210    30.4240     2.1100 hx         1 MOL       0.127700
     37 H23         24.5580    28.5340     1.7800 hx         1 MOL       0.127700
     38 H24         22.7560    28.7500     3.2350 hc         1 MOL       0.098700
     39 H25         22.0220    29.1390     1.8070 hc         1 MOL       0.098700
     40 H26         22.4510    30.6280     4.1190 hx         1 MOL       0.131700
     41 H27         21.1990    30.6520     2.9810 hx         1 MOL       0.131700
     42 H28         22.2860    32.5370     3.0820 hn         1 MOL       0.485467
     43 H29         23.7240    31.8210     2.7110 hn         1 MOL       0.485467
     44 H30         22.5040    31.8430     1.6010 hn         1 MOL       0.485467
@<TRIPOS>BOND
     1     1     2 1   
     2     1    15 1   
     3     1    16 1   
     4     1    17 1   
     5     2     3 1   
     6     2    18 1   
     7     2    19 1   
     8     3     4 1   
     9     3    20 1   
    10     3    21 1   
    11     4     5 1   
    12     4    22 1   
    13     4    23 1   
    14     5     6 1   
    15     5    24 1   
    16     5    25 1   
    17     6     7 1   
    18     6    26 1   
    19     6    27 1   
    20     7     8 1   
    21     7    28 1   
    22     7    29 1   
    23     8     9 1   
    24     8    30 1   
    25     8    31 1   
    26     9    10 1   
    27     9    32 1   
    28     9    33 1   
    29    10    11 1   
    30    10    34 1   
    31    10    35 1   
    32    11    12 1   
    33    11    36 1   
    34    11    37 1   
    35    12    13 1   
    36    12    38 1   
    37    12    39 1   
    38    13    14 1   
    39    13    40 1   
    40    13    41 1   
    41    14    42 1   
    42    14    43 1   
    43    14    44 1   
@<TRIPOS>SUBSTRUCTURE
     1 MOL         1 TEMP              0 ****  ****    0 ROOT
