
                    3D
 Schrodinger Suite 2021-1.
 44 43  0  0  1  0            999 V2000
   28.9370   25.6680    1.2120 N   0  3  0  0  0  0
   29.2540   26.5750    2.3740 C   0  0  0  0  0  0
   28.0460   27.3920    2.7340 C   0  0  0  0  0  0
   27.5350   28.8010    2.4780 C   0  0  0  0  0  0
   27.7950   30.1350    1.9830 N   0  3  0  0  0  0
   28.0000   29.5950    0.5580 C   0  0  0  0  0  0
   26.8990   28.5750    0.0800 C   0  0  0  0  0  0
   25.9610   29.8030   -0.0180 C   0  0  0  0  0  0
   24.5930   30.0740   -0.6590 C   0  0  0  0  0  0
   23.5860   29.8470    0.3580 N   0  3  0  0  0  0
   24.1630   29.5500    1.7740 C   0  0  0  0  0  0
   22.7680   29.5450    2.4900 C   0  0  0  0  0  0
   22.2870   30.6620    3.0420 C   0  0  0  0  0  0
   22.7230   31.7740    2.5850 N   0  3  0  0  0  0
   29.7542   25.1230    0.9770 H   0  0  0  0  0  0
   28.1807   25.0481    1.4647 H   0  0  0  0  0  0
   28.6634   26.2245    0.4148 H   0  0  0  0  0  0
   30.0741   27.2397    2.1025 H   0  0  0  0  0  0
   29.5547   25.9740    3.2322 H   0  0  0  0  0  0
   27.8467   27.1865    3.7857 H   0  0  0  0  0  0
   27.1877   26.7328    2.6040 H   0  0  0  0  0  0
   26.8866   28.9829    3.3351 H   0  0  0  0  0  0
   26.4974   28.6335    2.1892 H   0  0  0  0  0  0
   28.6948   30.4272    2.3365 H   0  0  0  0  0  0
   26.9245   30.6469    1.9986 H   0  0  0  0  0  0
   28.9815   29.1261    0.4874 H   0  0  0  0  0  0
   28.0465   30.4299   -0.1412 H   0  0  0  0  0  0
   26.5890   28.0078    0.9577 H   0  0  0  0  0  0
   27.1537   28.2877   -0.9401 H   0  0  0  0  0  0
   26.5926   30.6571   -0.2621 H   0  0  0  0  0  0
   25.9327   30.2518    0.9749 H   0  0  0  0  0  0
   24.4362   29.3812   -1.4857 H   0  0  0  0  0  0
   24.5467   31.1115   -0.9901 H   0  0  0  0  0  0
   22.9887   29.0840    0.0732 H   0  0  0  0  0  0
   22.9736   30.6487    0.4075 H   0  0  0  0  0  0
   24.7208   30.4240    2.1102 H   0  0  0  0  0  0
   24.5582   28.5342    1.7800 H   0  0  0  0  0  0
   22.7562   28.7495    3.2350 H   0  0  0  0  0  0
   22.0219   29.1389    1.8070 H   0  0  0  0  0  0
   22.4508   30.6285    4.1191 H   0  0  0  0  0  0
   21.1987   30.6517    2.9811 H   0  0  0  0  0  0
   22.2859   32.5372    3.0815 H   0  0  0  0  0  0
   23.7241   31.8208    2.7105 H   0  0  0  0  0  0
   22.5039   31.8435    1.6015 H   0  0  0  0  0  0
  1  2  1  0  0  0
  1 15  1  0  0  0
  1 16  1  0  0  0
  1 17  1  0  0  0
  2  3  1  0  0  0
  2 18  1  0  0  0
  2 19  1  0  0  0
  3  4  1  0  0  0
  3 20  1  0  0  0
  3 21  1  0  0  0
  4  5  1  0  0  0
  4 22  1  0  0  0
  4 23  1  0  0  0
  5  6  1  0  0  0
  5 24  1  0  0  0
  5 25  1  0  0  0
  6  7  1  0  0  0
  6 26  1  0  0  0
  6 27  1  0  0  0
  7  8  1  0  0  0
  7 28  1  0  0  0
  7 29  1  0  0  0
  8  9  1  0  0  0
  8 30  1  0  0  0
  8 31  1  0  0  0
  9 10  1  0  0  0
  9 32  1  0  0  0
  9 33  1  0  0  0
 10 11  1  0  0  0
 10 34  1  0  0  0
 10 35  1  0  0  0
 11 12  1  0  0  0
 11 36  1  0  0  0
 11 37  1  0  0  0
 12 13  1  0  0  0
 12 38  1  0  0  0
 12 39  1  0  0  0
 13 14  1  0  0  0
 13 40  1  0  0  0
 13 41  1  0  0  0
 14 42  1  0  0  0
 14 43  1  0  0  0
 14 44  1  0  0  0
M  CHG  4   1   1   5   1  10   1  14   1
M  END
> <s_pdb_PDB_format_version>
3.0

> <b_ppw_prepared>
1

> <s_ppw_prepared_with_version>
2021-1

> <s_ppw_het_states>
eJztkEEOhCAQBL8y8UwMraiwXzH+wOzNk/HvO8P2rD5hD3CgGpjQnT47dC9ZdSEItiDrECQaRzKRE99nnhcyk4VE5CDgN/4l/E8kmzFltsPtPFIqE6XSrZXznWKhVGZKZaE0/pKYwCMW3LIKN63Ck8W+TFlHzyvI+9j3714jt6paVa2qVtW/V7VdH576Q1E=

$$$$
