@<TRIPOS>MOLECULE
MOL
   43    47     1     0     0
SMALL
bcc


@<TRIPOS>ATOM
      1 C1          -2.4680     6.2940    -0.6910 ca         1 MOL      -0.112000
      2 C2          -2.5250     6.0530     1.7000 ca         1 MOL      -0.098000
      3 C3          -1.8790     6.1590     2.9290 ca         1 MOL      -0.048300
      4 C4          -2.3770     6.5460    -3.0970 ca         1 MOL      -0.128000
      5 C5          -0.2540     6.6510    -4.1410 ca         1 MOL       0.071100
      6 C6          -0.5380     6.5230     2.9760 c3         1 MOL      -0.054100
      7 C7           0.2200     5.8360     1.8400 c3         1 MOL       0.000300
      8 C8          -4.0000     6.0080     4.0530 ca         1 MOL       0.164100
      9 O1          -4.7890     5.9500     5.1600 os         1 MOL      -0.281900
     10 C9          -4.0060     6.0400     6.3550 c3         1 MOL       0.102700
     11 C10         -2.6160     6.1240     4.1090 ca         1 MOL      -0.187000
     12 N1          -0.4600     6.0950     0.5510 na         1 MOL       0.024900
     13 C11          0.2930     6.2440    -0.6210 ca         1 MOL       0.051700
     14 C12         -0.3530     6.4100    -1.8400 ca         1 MOL      -0.085000
     15 C13          0.3530     6.5290    -2.9640 ca         1 MOL       0.093100
     16 O2           1.7010     6.4710    -3.1220 os         1 MOL      -0.326900
     17 C14          1.9500     6.6840    -4.5230 c3         1 MOL       0.324200
     18 O3           0.6560     6.6750    -5.1500 os         1 MOL      -0.305900
     19 C15         -1.5830     6.6580    -4.2310 ca         1 MOL      -0.029000
     20 C16         -1.7420     6.4240    -1.8680 ca         1 MOL       0.017000
     21 C17         -1.8000     6.1250     0.5170 ca         1 MOL       0.050700
     22 C18         -3.9110     5.9390     1.6470 ca         1 MOL      -0.150000
     23 C19         -4.6460     5.9290     2.8260 ca         1 MOL       0.117100
     24 O4          -6.0070     5.9460     2.8460 os         1 MOL      -0.286900
     25 C20         -6.5350     5.8560     1.5200 c3         1 MOL       0.104700
     26 H1          -3.5470     6.3240    -0.7160 ha         1 MOL       0.184000
     27 H2          -3.4530     6.5560    -3.1880 ha         1 MOL       0.169000
     28 H3          -0.1130     6.2190     3.9320 hc         1 MOL       0.090700
     29 H4          -0.4510     7.6040     2.8690 hc         1 MOL       0.090700
     30 H5           0.2540     4.7620     2.0230 h1         1 MOL       0.095700
     31 H6           1.2380     6.2220     1.7970 h1         1 MOL       0.095700
     32 H7          -4.6620     5.9910     7.2240 h1         1 MOL       0.059033
     33 H8          -3.2970     5.2130     6.3880 h1         1 MOL       0.059033
     34 H9          -3.4620     6.9850     6.3630 h1         1 MOL       0.059033
     35 H10         -2.1120     6.1870     5.0620 ha         1 MOL       0.159000
     36 H11          1.3720     6.2300    -0.5750 h4         1 MOL       0.209000
     37 H12          2.5470     5.8600    -4.9140 h2         1 MOL       0.100700
     38 H13          2.4130     7.6600    -4.6640 h2         1 MOL       0.100700
     39 H14         -2.0420     6.7530    -5.2040 ha         1 MOL       0.189000
     40 H15         -4.4100     5.8590     0.6930 ha         1 MOL       0.149000
     41 H16         -7.6240     5.8710     1.5600 h1         1 MOL       0.054033
     42 H17         -6.1820     6.7010     0.9300 h1         1 MOL       0.054033
     43 H18         -6.2020     4.9260     1.0580 h1         1 MOL       0.054033
@<TRIPOS>BOND
     1     1    20 ar  
     2     1    21 ar  
     3     1    26 1   
     4     2     3 ar  
     5     2    21 1   
     6     2    22 ar  
     7     3     6 1   
     8     3    11 ar  
     9     4    19 ar  
    10     4    20 ar  
    11     4    27 1   
    12     5    15 ar  
    13     5    18 1   
    14     5    19 ar  
    15     6     7 1   
    16     6    28 1   
    17     6    29 1   
    18     7    12 1   
    19     7    30 1   
    20     7    31 1   
    21     8     9 1   
    22     8    11 ar  
    23     8    23 ar  
    24     9    10 1   
    25    10    32 1   
    26    10    33 1   
    27    10    34 1   
    28    11    35 1   
    29    12    13 2   
    30    12    21 1   
    31    13    14 ar  
    32    13    36 1   
    33    14    15 ar  
    34    14    20 ar  
    35    15    16 1   
    36    16    17 1   
    37    17    18 1   
    38    17    37 1   
    39    17    38 1   
    40    19    39 1   
    41    22    23 ar  
    42    22    40 1   
    43    23    24 1   
    44    24    25 1   
    45    25    41 1   
    46    25    42 1   
    47    25    43 1   
@<TRIPOS>SUBSTRUCTURE
     1 MOL         1 TEMP              0 ****  ****    0 ROOT
