
                    3D
 Schrodinger Suite 2021-1.
 43 47  0  0  1  0            999 V2000
   -2.4680    6.2940   -0.6910 C   0  0  0  0  0  0
   -2.5250    6.0530    1.7000 C   0  0  0  0  0  0
   -1.8790    6.1590    2.9290 C   0  0  0  0  0  0
   -2.3770    6.5460   -3.0970 C   0  0  0  0  0  0
   -0.2540    6.6510   -4.1410 C   0  0  0  0  0  0
   -0.5380    6.5230    2.9760 C   0  0  0  0  0  0
    0.2200    5.8360    1.8400 C   0  0  0  0  0  0
   -4.0000    6.0080    4.0530 C   0  0  0  0  0  0
   -4.7890    5.9500    5.1600 O   0  0  0  0  0  0
   -4.0060    6.0400    6.3550 C   0  0  0  0  0  0
   -2.6160    6.1240    4.1090 C   0  0  0  0  0  0
   -0.4600    6.0950    0.5510 N   0  0  0  0  0  0
    0.2930    6.2440   -0.6210 C   0  0  0  0  0  0
   -0.3530    6.4100   -1.8400 C   0  0  0  0  0  0
    0.3530    6.5290   -2.9640 C   0  0  0  0  0  0
    1.7010    6.4710   -3.1220 O   0  0  0  0  0  0
    1.9500    6.6840   -4.5230 C   0  0  0  0  0  0
    0.6560    6.6750   -5.1500 O   0  0  0  0  0  0
   -1.5830    6.6580   -4.2310 C   0  0  0  0  0  0
   -1.7420    6.4240   -1.8680 C   0  0  0  0  0  0
   -1.8000    6.1250    0.5170 C   0  0  0  0  0  0
   -3.9110    5.9390    1.6470 C   0  0  0  0  0  0
   -4.6460    5.9290    2.8260 C   0  0  0  0  0  0
   -6.0070    5.9460    2.8460 O   0  0  0  0  0  0
   -6.5350    5.8560    1.5200 C   0  0  0  0  0  0
   -3.5473    6.3243   -0.7161 H   0  0  0  0  0  0
   -3.4531    6.5555   -3.1882 H   0  0  0  0  0  0
   -0.1126    6.2189    3.9324 H   0  0  0  0  0  0
   -0.4513    7.6042    2.8686 H   0  0  0  0  0  0
    0.2537    4.7621    2.0234 H   0  0  0  0  0  0
    1.2384    6.2223    1.7973 H   0  0  0  0  0  0
   -4.6618    5.9911    7.2243 H   0  0  0  0  0  0
   -3.2969    5.2129    6.3885 H   0  0  0  0  0  0
   -3.4623    6.9847    6.3634 H   0  0  0  0  0  0
   -2.1124    6.1869    5.0623 H   0  0  0  0  0  0
    1.3719    6.2296   -0.5751 H   0  0  0  0  0  0
    2.5471    5.8600   -4.9137 H   0  0  0  0  0  0
    2.4134    7.6605   -4.6637 H   0  0  0  0  0  0
   -2.0417    6.7526   -5.2042 H   0  0  0  0  0  0
   -4.4101    5.8589    0.6926 H   0  0  0  0  0  0
   -7.6241    5.8714    1.5602 H   0  0  0  0  0  0
   -6.1818    6.7014    0.9296 H   0  0  0  0  0  0
   -6.2021    4.9265    1.0581 H   0  0  0  0  0  0
  1 20  2  0  0  0
  1 21  1  0  0  0
  1 26  1  0  0  0
  2  3  2  0  0  0
  2 21  1  0  0  0
  2 22  1  0  0  0
  3  6  1  0  0  0
  3 11  1  0  0  0
  4 19  2  0  0  0
  4 20  1  0  0  0
  4 27  1  0  0  0
  5 15  2  0  0  0
  5 18  1  0  0  0
  5 19  1  0  0  0
  6  7  1  0  0  0
  6 28  1  0  0  0
  6 29  1  0  0  0
  7 12  1  0  0  0
  7 30  1  0  0  0
  7 31  1  0  0  0
  8  9  1  0  0  0
  8 11  2  0  0  0
  8 23  1  0  0  0
  9 10  1  0  0  0
 10 32  1  0  0  0
 10 33  1  0  0  0
 10 34  1  0  0  0
 11 35  1  0  0  0
 12 13  1  0  0  0
 12 21  2  0  0  0
 13 14  2  0  0  0
 13 36  1  0  0  0
 14 15  1  0  0  0
 14 20  1  0  0  0
 15 16  1  0  0  0
 16 17  1  0  0  0
 17 18  1  0  0  0
 17 37  1  0  0  0
 17 38  1  0  0  0
 19 39  1  0  0  0
 22 23  2  0  0  0
 22 40  1  0  0  0
 23 24  1  0  0  0
 24 25  1  0  0  0
 25 41  1  0  0  0
 25 42  1  0  0  0
 25 43  1  0  0  0
M  END
> <i_pdb_PDB_Model>
1

> <s_pdb_PDB_format_version>
3.0

> <b_ppw_prepared>
1

> <s_ppw_prepared_with_version>
2021-1

> <s_ppw_het_states>
eJxVkEsOg0AMQ6+CWNMKhymfXgVxA9RdV4i7Nwk2UCSwE2ZePluN+l3N/qCp2qWpZqN21EJ9UXvqQB2pExWtjIgQEmJCUIgKYSEuBIbIJrKdvYpsIpvIluRwMVlctYS5+gtO2jFt/+nggkvoLwsd8SLRldEHHdxRTGTy4y0/0TtvoA1VJT86XTYqGX3MBm4YqpT3ultgupHZoqAcHUHB2WpmNVsadZVGnccm7NxSmKI/QUu0R4/26eBtb6rPd12P77LsP4ghf2U=

$$$$
