
                    3D
 Schrodinger Suite 2021-1.
 56 60  0  0  1  0            999 V2000
   13.8420   -7.4480   -6.1540 C   0  0  0  0  0  0
   14.8130   -6.4910   -6.4330 C   0  0  0  0  0  0
   14.4930   -5.3760   -7.2060 N   0  0  0  0  0  0
   15.5250   -4.3560   -7.5030 C   0  0  0  0  0  0
   13.1970   -5.2230   -7.6990 C   0  0  0  0  0  0
   12.2280   -6.1810   -7.4200 C   0  0  0  0  0  0
   12.5360   -7.3030   -6.6460 C   0  0  0  0  0  0
   11.5910   -8.2760   -6.3420 C   0  0  0  0  0  0
   11.9320   -9.7530   -6.1200 C   0  0  0  0  0  0
   11.1110  -10.6300   -5.4170 C   0  0  0  0  0  0
    9.7960  -10.7930   -5.8300 C   0  0  0  0  0  0
   11.5510  -11.3420   -4.3250 C   0  0  0  0  0  0
   10.6780  -12.1950   -3.6720 C   0  0  0  0  0  0
    9.4150  -12.3240   -4.1020 C   0  0  0  0  0  0
    8.4050  -13.0640   -3.6530 N   0  0  0  0  0  0
    8.9770  -11.6290   -5.1720 C   0  0  0  0  0  0
    7.7000  -11.9490   -5.3710 C   0  0  0  0  0  0
    6.8160  -11.5390   -6.2960 C   0  0  0  0  0  0
    7.3450  -12.8420   -4.4250 C   0  0  0  0  0  0
    6.1020  -13.3400   -4.3870 C   0  0  0  0  0  0
    5.1640  -12.9410   -5.3230 C   0  0  0  0  0  0
    5.5170  -12.0310   -6.2900 C   0  0  0  0  0  0
    4.6160  -11.5950   -7.2550 C   0  0  0  0  0  0
    4.4490  -10.1220   -7.6510 C   0  0  0  0  0  0
    3.3490   -9.6310   -8.3470 C   0  0  0  0  0  0
    2.0810  -10.1630   -8.0700 C   0  0  0  0  0  0
    0.9560   -9.6970   -8.7440 C   0  0  0  0  0  0
    1.0830   -8.6930   -9.7040 N   0  0  0  0  0  0
   -0.1140   -8.1960  -10.4210 C   0  0  0  0  0  0
    2.3390   -8.1580   -9.9860 C   0  0  0  0  0  0
    3.4630   -8.6250   -9.3110 C   0  0  0  0  0  0
   14.0910   -8.3110   -5.5543 H   0  0  0  0  0  0
   15.8158   -6.6117   -6.0505 H   0  0  0  0  0  0
   15.0901   -3.5659   -8.1152 H   0  0  0  0  0  0
   15.8948   -3.9302   -6.5702 H   0  0  0  0  0  0
   16.3506   -4.8201   -8.0425 H   0  0  0  0  0  0
   12.9454   -4.3602   -8.2978 H   0  0  0  0  0  0
   11.2251   -6.0621   -7.8028 H   0  0  0  0  0  0
   10.5491   -8.0069   -6.2503 H   0  0  0  0  0  0
   12.8493  -10.1612   -6.5180 H   0  0  0  0  0  0
    9.4267  -10.2459   -6.6848 H   0  0  0  0  0  0
   12.5699  -11.2328   -3.9840 H   0  0  0  0  0  0
   11.0140  -12.7584   -2.8140 H   0  0  0  0  0  0
    8.5349  -13.6611   -2.8489 H   0  0  0  0  0  0
    7.1142  -10.8239   -7.0484 H   0  0  0  0  0  0
    5.8297  -14.0548   -3.6245 H   0  0  0  0  0  0
    4.1628  -13.3445   -5.2900 H   0  0  0  0  0  0
    3.9881  -12.3078   -7.7689 H   0  0  0  0  0  0
    5.2108   -9.4027   -7.3889 H   0  0  0  0  0  0
    1.9719  -10.9406   -7.3285 H   0  0  0  0  0  0
   -0.0162  -10.1128   -8.5239 H   0  0  0  0  0  0
    0.1808   -7.4190  -11.1263 H   0  0  0  0  0  0
   -0.5817   -9.0186  -10.9621 H   0  0  0  0  0  0
   -0.8233   -7.7842   -9.7031 H   0  0  0  0  0  0
    2.4404   -7.3805  -10.7287 H   0  0  0  0  0  0
    4.4304   -8.2022   -9.5384 H   0  0  0  0  0  0
  1  2  1  0  0  0
  1  7  2  0  0  0
  1 32  1  0  0  0
  2  3  2  0  0  0
  2 33  1  0  0  0
  3  4  1  0  0  0
  3  5  1  0  0  0
  4 34  1  0  0  0
  4 35  1  0  0  0
  4 36  1  0  0  0
  5  6  2  0  0  0
  5 37  1  0  0  0
  6  7  1  0  0  0
  6 38  1  0  0  0
  7  8  1  0  0  0
  8  9  2  0  0  0
  8 39  1  0  0  0
  9 10  1  0  0  0
  9 40  1  0  0  0
 10 11  2  0  0  0
 10 12  1  0  0  0
 11 16  1  0  0  0
 11 41  1  0  0  0
 12 13  2  0  0  0
 12 42  1  0  0  0
 13 14  1  0  0  0
 13 43  1  0  0  0
 14 15  1  0  0  0
 14 16  2  0  0  0
 15 19  1  0  0  0
 15 44  1  0  0  0
 16 17  1  0  0  0
 17 18  1  0  0  0
 17 19  2  0  0  0
 18 22  2  0  0  0
 18 45  1  0  0  0
 19 20  1  0  0  0
 20 21  2  0  0  0
 20 46  1  0  0  0
 21 22  1  0  0  0
 21 47  1  0  0  0
 22 23  1  0  0  0
 23 24  2  0  0  0
 23 48  1  0  0  0
 24 25  1  0  0  0
 24 49  1  0  0  0
 25 26  1  0  0  0
 25 31  2  0  0  0
 26 27  2  0  0  0
 26 50  1  0  0  0
 27 28  1  0  0  0
 27 51  1  0  0  0
 28 29  1  0  0  0
 28 30  2  0  0  0
 29 52  1  0  0  0
 29 53  1  0  0  0
 29 54  1  0  0  0
 30 31  1  0  0  0
 30 55  1  0  0  0
 31 56  1  0  0  0
M  END
> <i_pdb_PDB_Model>
1

> <s_pdb_PDB_format_version>
3.0

> <b_ppw_prepared>
1

> <s_ppw_prepared_with_version>
2021-1

> <s_ppw_het_states>
eJxNkkGOwjAQBL9i5RxWmbETEr6C8gO0tz0h/r7TZsoKB7rHTCqtNu/Jpkd5xsfmspxzeXpqTW2pa+qWek/dU49UWzAQDaTBNKAG1cAaXANskB2yj6yQHbJDdsgO2SE7ZIdcIddOllMfQbeeYC7xrGc7NW1oy4Wwa9rQLRe2/phlWXva0CMXQtWWUZsa8zGMt8ep6jG6NBLIGBm6Wa8DOfrpwS8iEaub/ToQTadq17kBJ6iME7Qbgvb9yqCQjTUZssn4dhnqoCnxaFqGbDJ+XAbdmHN1Aphu7bb8xPieWos/tYbPXH7/Xq/v93l+/gGsEZze

$$$$
