@<TRIPOS>MOLECULE
MOL
   56    60     1     0     0
SMALL
bcc


@<TRIPOS>ATOM
      1 C1          13.8420    -7.4480    -6.1540 ca         1 MOL      -0.192000
      2 C2          14.8130    -6.4910    -6.4330 ca         1 MOL      -0.054800
      3 N1          14.4930    -5.3760    -7.2060 na         1 MOL      -0.141100
      4 C3          15.5250    -4.3560    -7.5030 c3         1 MOL       0.027600
      5 C4          13.1970    -5.2230    -7.6990 ca         1 MOL      -0.054800
      6 C5          12.2280    -6.1810    -7.4200 ca         1 MOL      -0.192000
      7 C6          12.5360    -7.3030    -6.6460 ca         1 MOL      -0.008800
      8 C7          11.5910    -8.2760    -6.3420 ce         1 MOL      -0.170200
      9 C8          11.9320    -9.7530    -6.1200 cf         1 MOL      -0.095200
     10 C9          11.1110   -10.6300    -5.4170 ca         1 MOL      -0.067800
     11 C10          9.7960   -10.7930    -5.8300 ca         1 MOL      -0.089000
     12 C11         11.5510   -11.3420    -4.3250 ca         1 MOL      -0.128000
     13 C12         10.6780   -12.1950    -3.6720 ca         1 MOL      -0.108000
     14 C13          9.4150   -12.3240    -4.1020 ca         1 MOL      -0.163200
     15 N2           8.4050   -13.0640    -3.6530 na         1 MOL      -0.101200
     16 C14          8.9770   -11.6290    -5.1720 ca         1 MOL      -0.047800
     17 C15          7.7000   -11.9490    -5.3710 cc         1 MOL      -0.024200
     18 C16          6.8160   -11.5390    -6.2960 cd         1 MOL      -0.089000
     19 C17          7.3450   -12.8420    -4.4250 cc         1 MOL      -0.063300
     20 C18          6.1020   -13.3400    -4.3870 cc         1 MOL      -0.108000
     21 C19          5.1640   -12.9410    -5.3230 cd         1 MOL      -0.128000
     22 C20          5.5170   -12.0310    -6.2900 cd         1 MOL      -0.056000
     23 C21          4.6160   -11.5950    -7.2550 ce         1 MOL      -0.107000
     24 C22          4.4490   -10.1220    -7.6510 ce         1 MOL      -0.182000
     25 C23          3.3490    -9.6310    -8.3470 cd         1 MOL       0.003000
     26 C24          2.0810   -10.1630    -8.0700 cd         1 MOL      -0.192000
     27 C25          0.9560    -9.6970    -8.7440 cc         1 MOL      -0.030500
     28 N3           1.0830    -8.6930    -9.7040 na         1 MOL      -0.367200
     29 C26         -0.1140    -8.1960   -10.4210 c3         1 MOL       0.205100
     30 C27          2.3390    -8.1580    -9.9860 cc         1 MOL      -0.030500
     31 C28          3.4630    -8.6250    -9.3110 cd         1 MOL      -0.192000
     32 H1          14.0910    -8.3110    -5.5540 ha         1 MOL       0.143500
     33 H2          15.8160    -6.6120    -6.0510 h4         1 MOL       0.146000
     34 H3          15.0900    -3.5660    -8.1150 h1         1 MOL       0.045700
     35 H4          15.8950    -3.9300    -6.5700 h1         1 MOL       0.045700
     36 H5          16.3510    -4.8200    -8.0430 h1         1 MOL       0.045700
     37 H6          12.9450    -4.3600    -8.2980 h4         1 MOL       0.146000
     38 H7          11.2250    -6.0620    -7.8030 ha         1 MOL       0.143500
     39 H8          10.5490    -8.0070    -6.2500 ha         1 MOL       0.120000
     40 H9          12.8490   -10.1610    -6.5180 ha         1 MOL       0.112000
     41 H10          9.4270   -10.2460    -6.6850 ha         1 MOL       0.134000
     42 H11         12.5700   -11.2330    -3.9840 ha         1 MOL       0.123000
     43 H12         11.0140   -12.7580    -2.8140 ha         1 MOL       0.123000
     44 H13          8.5350   -13.6610    -2.8490 hn         1 MOL       0.295700
     45 H14          7.1140   -10.8240    -7.0480 ha         1 MOL       0.134000
     46 H15          5.8300   -14.0550    -3.6240 ha         1 MOL       0.123000
     47 H16          4.1630   -13.3450    -5.2900 ha         1 MOL       0.123000
     48 H17          3.9880   -12.3080    -7.7690 ha         1 MOL       0.112000
     49 H18          5.2110    -9.4030    -7.3890 ha         1 MOL       0.120000
     50 H19          1.9720   -10.9410    -7.3290 ha         1 MOL       0.143500
     51 H20         -0.0160   -10.1130    -8.5240 h4         1 MOL       0.146000
     52 H21          0.1810    -7.4190   -11.1260 h1         1 MOL       0.045700
     53 H22         -0.5820    -9.0190   -10.9620 h1         1 MOL       0.045700
     54 H23         -0.8230    -7.7840    -9.7030 h1         1 MOL       0.045700
     55 H24          2.4400    -7.3800   -10.7290 h4         1 MOL       0.146000
     56 H25          4.4300    -8.2020    -9.5380 ha         1 MOL       0.143500
@<TRIPOS>BOND
     1     1     2 ar  
     2     1     7 ar  
     3     1    32 1   
     4     2     3 2   
     5     2    33 1   
     6     3     4 1   
     7     3     5 1   
     8     4    34 1   
     9     4    35 1   
    10     4    36 1   
    11     5     6 ar  
    12     5    37 1   
    13     6     7 ar  
    14     6    38 1   
    15     7     8 1   
    16     8     9 2   
    17     8    39 1   
    18     9    10 1   
    19     9    40 1   
    20    10    11 ar  
    21    10    12 ar  
    22    11    16 ar  
    23    11    41 1   
    24    12    13 ar  
    25    12    42 1   
    26    13    14 ar  
    27    13    43 1   
    28    14    15 1   
    29    14    16 ar  
    30    15    19 2   
    31    15    44 1   
    32    16    17 1   
    33    17    18 2   
    34    17    19 1   
    35    18    22 1   
    36    18    45 1   
    37    19    20 1   
    38    20    21 2   
    39    20    46 1   
    40    21    22 1   
    41    21    47 1   
    42    22    23 2   
    43    23    24 1   
    44    23    48 1   
    45    24    25 2   
    46    24    49 1   
    47    25    26 1   
    48    25    31 1   
    49    26    27 2   
    50    26    50 1   
    51    27    28 1   
    52    27    51 1   
    53    28    29 1   
    54    28    30 1   
    55    29    52 1   
    56    29    53 1   
    57    29    54 1   
    58    30    31 2   
    59    30    55 1   
    60    31    56 1   
@<TRIPOS>SUBSTRUCTURE
     1 MOL         1 TEMP              0 ****  ****    0 ROOT
