
                    3D
 Schrodinger Suite 2021-1.
 84 91  0  0  1  0            999 V2000
    3.9510   -5.3350   -9.3460 C   0  0  0  0  0  0
    5.0440   -5.1700   -8.5540 C   0  0  0  0  0  0
    6.0870   -4.4450   -9.0400 C   0  0  0  0  0  0
    6.0120   -3.8950  -10.3360 C   0  0  0  0  0  0
    4.9280   -4.0650  -11.1400 C   0  0  0  0  0  0
    3.8850   -4.7810  -10.6410 C   0  0  0  0  0  0
    7.3700   -4.0730   -8.4800 C   0  0  0  0  0  0
    8.0130   -3.3190   -9.4680 C   0  0  0  0  0  0
    7.2160   -3.1540  -10.7400 C   0  0  1  0  0  0
    7.8690   -3.8160  -11.7940 O   0  0  0  0  0  0
    2.6190   -5.1380  -11.2980 C   0  0  2  0  0  0
    2.0520   -6.2390  -10.4010 C   0  0  2  0  0  0
    2.7230   -6.0810   -9.0360 C   0  0  2  0  0  0
    6.9290   -1.6950  -11.0950 C   0  0  2  0  0  0
    7.9980   -1.1810  -11.8520 O   0  0  0  0  0  0
    8.5410   -0.1120  -11.2240 C   0  0  0  0  0  0
    9.4930    0.5290  -11.6520 O   0  0  0  0  0  0
    7.9030    0.1510  -10.0580 O   0  0  0  0  0  0
    6.8800   -0.7940   -9.8610 C   0  0  0  0  0  0
    2.3970   -7.4550  -11.0200 O   0  0  0  0  0  0
    2.7620   -7.2830  -12.3120 C   0  0  0  0  0  0
    3.0660   -8.1850  -13.0830 O   0  0  0  0  0  0
    2.8120   -5.7950  -12.6650 C   0  0  1  0  0  0
    1.6180   -5.3950  -13.5340 C   0  0  0  0  0  0
    0.5360   -5.9330  -13.3310 O   0  0  0  0  0  0
    1.7980   -4.2810  -14.4590 C   0  0  0  0  0  0
    3.0320   -3.6910  -14.6700 C   0  0  0  0  0  0
    4.1810   -4.3650  -14.2290 C   0  0  0  0  0  0
    4.1350   -5.4370  -13.2990 C   0  0  0  0  0  0
    5.3160   -6.1110  -12.9550 C   0  0  0  0  0  0
    6.5050   -5.7180  -13.5410 C   0  0  0  0  0  0
    7.6750   -6.3770  -13.2180 O   0  0  0  0  0  0
    6.5460   -4.6710  -14.4430 C   0  0  0  0  0  0
    5.4030   -3.9790  -14.8010 C   0  0  0  0  0  0
    5.5050   -2.8400  -15.7880 C   0  0  0  0  0  0
    8.2060   -6.9570  -14.3850 C   0  0  0  0  0  0
    1.8540   -5.3180   -8.2340 O   0  0  0  0  0  0
    0.8230   -6.0990   -7.6800 C   0  0  2  0  0  0
   -0.1140   -5.2160   -6.8560 C   0  0  2  0  0  0
   -0.7400   -4.1590   -7.6420 N   0  3  0  0  0  0
   -1.5200   -4.7220   -8.7380 C   0  0  0  0  0  0
    0.6810   -4.6250   -5.6910 C   0  0  1  0  0  0
   -0.2000   -3.9200   -4.8530 O   0  0  0  0  0  0
    1.3620   -5.7450   -4.9040 C   0  0  1  0  0  0
    0.3790   -6.5560   -4.3130 O   0  0  0  0  0  0
    2.2350   -6.5670   -5.8530 C   0  0  1  0  0  0
    2.8890   -7.7270   -5.1010 C   0  0  0  0  0  0
    1.4090   -7.0870   -6.8660 O   0  0  0  0  0  0
    5.0675   -5.6094   -7.5677 H   0  0  0  0  0  0
    4.9194   -3.6384  -12.1322 H   0  0  0  0  0  0
    7.6362   -4.3901   -7.4825 H   0  0  0  0  0  0
    8.9964   -2.9129   -9.2828 H   0  0  0  0  0  0
    8.6520   -3.3215  -12.0468 H   0  0  0  0  0  0
    1.9446   -4.2837  -11.3569 H   0  0  0  0  0  0
    0.9697   -6.1449  -10.3120 H   0  0  0  0  0  0
    2.9436   -7.0473   -8.5825 H   0  0  0  0  0  0
    5.9975   -1.6187  -11.6560 H   0  0  0  0  0  0
    7.1007   -1.3856   -8.9725 H   0  0  0  0  0  0
    5.9179   -0.2829   -9.8246 H   0  0  0  0  0  0
    0.9521   -3.8909  -15.0056 H   0  0  0  0  0  0
    3.0950   -2.7329  -15.1643 H   0  0  0  0  0  0
    5.2868   -6.9225  -12.2430 H   0  0  0  0  0  0
    7.4859   -4.3763  -14.8859 H   0  0  0  0  0  0
    6.5429   -2.7192  -16.0982 H   0  0  0  0  0  0
    4.8887   -3.0581  -16.6602 H   0  0  0  0  0  0
    5.1570   -1.9197  -15.3188 H   0  0  0  0  0  0
    9.1308   -7.4807  -14.1427 H   0  0  0  0  0  0
    7.4870   -7.6635  -14.7998 H   0  0  0  0  0  0
    8.4121   -6.1768  -15.1177 H   0  0  0  0  0  0
    0.2595   -6.5768   -8.4814 H   0  0  0  0  0  0
   -0.9022   -5.8468   -6.4449 H   0  0  0  0  0  0
   -0.0261   -3.5499   -8.0155 H   0  0  0  0  0  0
   -1.3438   -3.6100   -7.0469 H   0  0  0  0  0  0
   -1.9778   -3.9154   -9.3107 H   0  0  0  0  0  0
   -0.8666   -5.3033   -9.3885 H   0  0  0  0  0  0
   -2.2995   -5.3687   -8.3352 H   0  0  0  0  0  0
    1.4375   -3.9422   -6.0779 H   0  0  0  0  0  0
    0.2891   -3.5443   -4.1173 H   0  0  0  0  0  0
    1.9872   -5.3097   -4.1244 H   0  0  0  0  0  0
    0.8011   -7.2614   -3.8172 H   0  0  0  0  0  0
    3.0035   -5.9312   -6.2926 H   0  0  0  0  0  0
    3.5076   -8.3037   -5.7886 H   0  0  0  0  0  0
    3.5104   -7.3345   -4.2961 H   0  0  0  0  0  0
    2.1158   -8.3707   -4.6815 H   0  0  0  0  0  0
  1  2  2  0  0  0
  1  6  1  0  0  0
  1 13  1  0  0  0
  2  3  1  0  0  0
  2 49  1  0  0  0
  3  4  2  0  0  0
  3  7  1  0  0  0
  4  5  1  0  0  0
  4  9  1  0  0  0
  5  6  2  0  0  0
  5 50  1  0  0  0
  6 11  1  0  0  0
  7  8  2  0  0  0
  7 51  1  0  0  0
  8  9  1  0  0  0
  8 52  1  0  0  0
  9 10  1  0  0  0
  9 14  1  0  0  0
 10 53  1  0  0  0
 11 12  1  0  0  0
 11 23  1  0  0  0
 11 54  1  0  0  0
 12 13  1  0  0  0
 12 20  1  0  0  0
 12 55  1  0  0  0
 13 37  1  0  0  0
 13 56  1  0  0  0
 14 15  1  0  0  0
 14 19  1  0  0  0
 14 57  1  0  0  0
 15 16  1  0  0  0
 16 17  2  0  0  0
 16 18  1  0  0  0
 18 19  1  0  0  0
 19 58  1  0  0  0
 19 59  1  0  0  0
 20 21  1  0  0  0
 21 22  2  0  0  0
 21 23  1  0  0  0
 23 24  1  0  0  0
 23 29  1  0  0  0
 24 25  2  0  0  0
 24 26  1  0  0  0
 26 27  2  0  0  0
 26 60  1  0  0  0
 27 28  1  0  0  0
 27 61  1  0  0  0
 28 29  2  0  0  0
 28 34  1  0  0  0
 29 30  1  0  0  0
 30 31  2  0  0  0
 30 62  1  0  0  0
 31 32  1  0  0  0
 31 33  1  0  0  0
 32 36  1  0  0  0
 33 34  2  0  0  0
 33 63  1  0  0  0
 34 35  1  0  0  0
 35 64  1  0  0  0
 35 65  1  0  0  0
 35 66  1  0  0  0
 36 67  1  0  0  0
 36 68  1  0  0  0
 36 69  1  0  0  0
 37 38  1  0  0  0
 38 39  1  0  0  0
 38 48  1  0  0  0
 38 70  1  0  0  0
 39 40  1  0  0  0
 39 42  1  0  0  0
 39 71  1  0  0  0
 40 41  1  0  0  0
 40 72  1  0  0  0
 40 73  1  0  0  0
 41 74  1  0  0  0
 41 75  1  0  0  0
 41 76  1  0  0  0
 42 43  1  0  0  0
 42 44  1  0  0  0
 42 77  1  0  0  0
 43 78  1  0  0  0
 44 45  1  0  0  0
 44 46  1  0  0  0
 44 79  1  0  0  0
 45 80  1  0  0  0
 46 47  1  0  0  0
 46 48  1  0  0  0
 46 81  1  0  0  0
 47 82  1  0  0  0
 47 83  1  0  0  0
 47 84  1  0  0  0
M  CHG  1  40   1
M  END
> <i_pdb_PDB_Model>
1

> <s_pdb_PDB_format_version>
3.0

> <b_ppw_prepared>
1

> <s_ppw_prepared_with_version>
2021-1

> <s_ppw_het_states>
eJztlEluwzAMRa9iZG0E5uCpVwlyg6C7roLcvaKqp2hdoKsyi/CTtp5oSvjPi1w+plv5yTwt93m6aYvWore4tri1uLd4tHi2KAsCooAUmAJUoApYgSuABbJC1t4rZIWskBWyQlbIClkhG2SDbH0MkA2yQTbIBtkgG2QvZKkCskP2PmHIDtkhO2Sv5FBxUAWhdTTztDV+kTFeaUeILNHby0XuNDNP61ueTa6Vpu2Q4/ikHfTRysf75YjLoJ0+YpkOidJKrY6Jsj6qRm+VtI4JW9Zq/94QO3OI5ODJMayJPZQvCaHMTsfeQqiPSQfE+FbWREIHIZQOqqCDEAFQEuvoUjU+O0RcOOXmGXOrST/COE42jar1Ey3CGFUM0OgghJ1D4v1JqfZLWRM2jaozqqi6jQmfEMLXMaG3EL6PSd20ZMv1kJjD8zVPn1+Px89/vc3pO+k76TvpO+k76TvpO+k76TvpO7/0nSV9J33nX/uOXLft1PSd9J30nfSd9J30nfSd9J30nfSd9J30nfSdP/ad++sbUWV+Rg==

$$$$
