@<TRIPOS>MOLECULE
MOL
   84    91     1     0     0
SMALL
bcc


@<TRIPOS>ATOM
      1 C1           3.9510    -5.3350    -9.3460 ca         1 MOL      -0.104300
      2 C2           5.0440    -5.1700    -8.5540 ca         1 MOL      -0.072000
      3 C3           6.0870    -4.4450    -9.0400 ca         1 MOL      -0.051800
      4 C4           6.0120    -3.8950   -10.3360 ca         1 MOL      -0.079300
      5 C5           4.9280    -4.0650   -11.1400 ca         1 MOL      -0.059000
      6 C6           3.8850    -4.7810   -10.6410 ca         1 MOL      -0.078300
      7 C7           7.3700    -4.0730    -8.4800 ce         1 MOL      -0.098200
      8 C8           8.0130    -3.3190    -9.4680 c2         1 MOL      -0.185200
      9 C9           7.2160    -3.1540   -10.7400 c3         1 MOL       0.217300
     10 O1           7.8690    -3.8160   -11.7940 oh         1 MOL      -0.563800
     11 C10          2.6190    -5.1380   -11.2980 c3         1 MOL      -0.017400
     12 C11          2.0520    -6.2390   -10.4010 c3         1 MOL       0.103100
     13 C12          2.7230    -6.0810    -9.0360 c3         1 MOL       0.171400
     14 C13          6.9290    -1.6950   -11.0950 c3         1 MOL       0.090100
     15 O2           7.9980    -1.1810   -11.8520 os         1 MOL      -0.418900
     16 C14          8.5410    -0.1120   -11.2240 c          1 MOL       0.847700
     17 O3           9.4930     0.5290   -11.6520 o          1 MOL      -0.527500
     18 O4           7.9030     0.1510   -10.0580 os         1 MOL      -0.394900
     19 C15          6.8800    -0.7940    -9.8610 c3         1 MOL       0.103400
     20 O5           2.3970    -7.4550   -11.0200 os         1 MOL      -0.486900
     21 C16          2.7620    -7.2830   -12.3120 c          1 MOL       0.747600
     22 O6           3.0660    -8.1850   -13.0830 o          1 MOL      -0.515500
     23 C17          2.8120    -5.7950   -12.6650 c3         1 MOL      -0.160700
     24 C18          1.6180    -5.3950   -13.5340 c          1 MOL       0.587300
     25 O7           0.5360    -5.9330   -13.3310 o          1 MOL      -0.517100
     26 C19          1.7980    -4.2810   -14.4590 ce         1 MOL      -0.262200
     27 C20          3.0320    -3.6910   -14.6700 cf         1 MOL      -0.004200
     28 C21          4.1810    -4.3650   -14.2290 ca         1 MOL      -0.112800
     29 C22          4.1350    -5.4370   -13.2990 ca         1 MOL      -0.020300
     30 C23          5.3160    -6.1110   -12.9550 ca         1 MOL      -0.168000
     31 C24          6.5050    -5.7180   -13.5410 ca         1 MOL       0.166100
     32 O8           7.6750    -6.3770   -13.2180 os         1 MOL      -0.328900
     33 C25          6.5460    -4.6710   -14.4430 ca         1 MOL      -0.193000
     34 C26          5.4030    -3.9790   -14.8010 ca         1 MOL       0.012700
     35 C27          5.5050    -2.8400   -15.7880 c3         1 MOL      -0.071800
     36 C28          8.2060    -6.9570   -14.3850 c3         1 MOL       0.109700
     37 O9           1.8540    -5.3180    -8.2340 os         1 MOL      -0.442600
     38 C29          0.8230    -6.0990    -7.6800 c3         1 MOL       0.335900
     39 C30         -0.1140    -5.2160    -6.8560 c3         1 MOL       0.023500
     40 N1          -0.7400    -4.1590    -7.6420 ny         1 MOL      -0.750000
     41 C31         -1.5200    -4.7220    -8.7380 c3         1 MOL       0.086100
     42 C32          0.6810    -4.6250    -5.6910 c3         1 MOL       0.140100
     43 O10         -0.2000    -3.9200    -4.8530 oh         1 MOL      -0.603800
     44 C33          1.3620    -5.7450    -4.9040 c3         1 MOL       0.086100
     45 O11          0.3790    -6.5560    -4.3130 oh         1 MOL      -0.615800
     46 C34          2.2350    -6.5670    -5.8530 c3         1 MOL       0.111100
     47 C35          2.8890    -7.7270    -5.1010 c3         1 MOL      -0.105100
     48 O12          1.4090    -7.0870    -6.8660 os         1 MOL      -0.383600
     49 H1           5.0670    -5.6090    -7.5680 ha         1 MOL       0.153000
     50 H2           4.9190    -3.6380   -12.1320 ha         1 MOL       0.159000
     51 H3           7.6360    -4.3900    -7.4820 ha         1 MOL       0.162000
     52 H4           8.9960    -2.9130    -9.2830 ha         1 MOL       0.170000
     53 H5           8.6520    -3.3210   -12.0470 ho         1 MOL       0.433000
     54 H6           1.9450    -4.2840   -11.3570 hc         1 MOL       0.106700
     55 H7           0.9700    -6.1450   -10.3120 h1         1 MOL       0.096700
     56 H8           2.9440    -7.0470    -8.5820 h1         1 MOL       0.072700
     57 H9           5.9970    -1.6190   -11.6560 h1         1 MOL       0.100700
     58 H10          7.1010    -1.3860    -8.9730 h1         1 MOL       0.086200
     59 H11          5.9180    -0.2830    -9.8250 h1         1 MOL       0.086200
     60 H12          0.9520    -3.8910   -15.0060 ha         1 MOL       0.171000
     61 H13          3.0950    -2.7330   -15.1640 ha         1 MOL       0.153000
     62 H14          5.2870    -6.9230   -12.2430 ha         1 MOL       0.134000
     63 H15          7.4860    -4.3760   -14.8860 ha         1 MOL       0.155000
     64 H16          6.5430    -2.7190   -16.0980 hc         1 MOL       0.060367
     65 H17          4.8890    -3.0580   -16.6600 hc         1 MOL       0.060367
     66 H18          5.1570    -1.9200   -15.3190 hc         1 MOL       0.060367
     67 H19          9.1310    -7.4810   -14.1430 h1         1 MOL       0.054700
     68 H20          7.4870    -7.6630   -14.8000 h1         1 MOL       0.054700
     69 H21          8.4120    -6.1770   -15.1180 h1         1 MOL       0.054700
     70 H22          0.2600    -6.5770    -8.4810 h2         1 MOL       0.103700
     71 H23         -0.9020    -5.8470    -6.4450 hx         1 MOL       0.138700
     72 H24         -0.0260    -3.5500    -8.0150 hn         1 MOL       0.471800
     73 H25         -1.3440    -3.6100    -7.0470 hn         1 MOL       0.471800
     74 H26         -1.9780    -3.9150    -9.3110 hx         1 MOL       0.106367
     75 H27         -0.8670    -5.3030    -9.3890 hx         1 MOL       0.106367
     76 H28         -2.3000    -5.3690    -8.3350 hx         1 MOL       0.106367
     77 H29          1.4380    -3.9420    -6.0780 h1         1 MOL       0.107700
     78 H30          0.2890    -3.5440    -4.1170 ho         1 MOL       0.449000
     79 H31          1.9870    -5.3100    -4.1240 h1         1 MOL       0.086700
     80 H32          0.8010    -7.2610    -3.8170 ho         1 MOL       0.441000
     81 H33          3.0030    -5.9310    -6.2930 h1         1 MOL       0.082700
     82 H34          3.5080    -8.3040    -5.7890 hc         1 MOL       0.064700
     83 H35          3.5100    -7.3350    -4.2960 hc         1 MOL       0.064700
     84 H36          2.1160    -8.3710    -4.6810 hc         1 MOL       0.064700
@<TRIPOS>BOND
     1     1     2 ar  
     2     1     6 ar  
     3     1    13 1   
     4     2     3 ar  
     5     2    49 1   
     6     3     4 ar  
     7     3     7 1   
     8     4     5 ar  
     9     4     9 1   
    10     5     6 ar  
    11     5    50 1   
    12     6    11 1   
    13     7     8 2   
    14     7    51 1   
    15     8     9 1   
    16     8    52 1   
    17     9    10 1   
    18     9    14 1   
    19    10    53 1   
    20    11    12 1   
    21    11    23 1   
    22    11    54 1   
    23    12    13 1   
    24    12    20 1   
    25    12    55 1   
    26    13    37 1   
    27    13    56 1   
    28    14    15 1   
    29    14    19 1   
    30    14    57 1   
    31    15    16 1   
    32    16    17 2   
    33    16    18 1   
    34    18    19 1   
    35    19    58 1   
    36    19    59 1   
    37    20    21 1   
    38    21    22 2   
    39    21    23 1   
    40    23    24 1   
    41    23    29 1   
    42    24    25 2   
    43    24    26 1   
    44    26    27 2   
    45    26    60 1   
    46    27    28 1   
    47    27    61 1   
    48    28    29 ar  
    49    28    34 ar  
    50    29    30 ar  
    51    30    31 ar  
    52    30    62 1   
    53    31    32 1   
    54    31    33 ar  
    55    32    36 1   
    56    33    34 ar  
    57    33    63 1   
    58    34    35 1   
    59    35    64 1   
    60    35    65 1   
    61    35    66 1   
    62    36    67 1   
    63    36    68 1   
    64    36    69 1   
    65    37    38 1   
    66    38    39 1   
    67    38    48 1   
    68    38    70 1   
    69    39    40 1   
    70    39    42 1   
    71    39    71 1   
    72    40    41 1   
    73    40    72 1   
    74    40    73 1   
    75    41    74 1   
    76    41    75 1   
    77    41    76 1   
    78    42    43 1   
    79    42    44 1   
    80    42    77 1   
    81    43    78 1   
    82    44    45 1   
    83    44    46 1   
    84    44    79 1   
    85    45    80 1   
    86    46    47 1   
    87    46    48 1   
    88    46    81 1   
    89    47    82 1   
    90    47    83 1   
    91    47    84 1   
@<TRIPOS>SUBSTRUCTURE
     1 MOL         1 TEMP              0 ****  ****    0 ROOT
