
                    3D
 Schrodinger Suite 2021-1.
 36 38  0  0  1  0            999 V2000
   20.2710   24.4150   24.0740 C   0  0  0  0  0  0
   18.9120   24.0900   23.9560 C   0  0  0  0  0  0
   18.5090   22.7460   23.9560 C   0  0  0  0  0  0
   20.8480   22.0460   24.1390 C   0  0  0  0  0  0
   21.2420   23.4050   24.1590 C   0  0  0  0  0  0
   19.0560   20.3850   24.1120 C   0  0  0  0  0  0
   20.0040   19.3560   24.2490 C   0  0  0  0  0  0
   21.3850   19.6600   24.3040 C   0  0  0  0  0  0
   19.5680   18.0210   24.3320 C   0  0  0  0  0  0
   20.5030   16.9910   24.5230 C   0  0  0  0  0  0
   21.8710   17.2910   24.6060 C   0  0  0  0  0  0
   22.3230   18.6130   24.4570 C   0  0  0  0  0  0
   22.9960   24.2780   25.6540 N   0  3  0  0  0  0
   24.3300   18.6270   23.0720 N   0  3  0  0  0  0
   19.4730   21.7250   24.0640 C   0  0  0  0  0  0
   21.7960   21.0060   24.2230 C   0  0  0  0  0  0
   22.6850   23.8410   24.2840 C   0  0  0  0  0  0
   23.8160   18.8420   24.4400 C   0  0  0  0  0  0
   20.5784   25.4500   24.1002 H   0  0  0  0  0  0
   18.1751   24.8743   23.8651 H   0  0  0  0  0  0
   17.4615   22.4963   23.8733 H   0  0  0  0  0  0
   18.0051   20.1455   24.0435 H   0  0  0  0  0  0
   18.5162   17.7903   24.2488 H   0  0  0  0  0  0
   20.1692   15.9672   24.6061 H   0  0  0  0  0  0
   22.5868   16.5025   24.7858 H   0  0  0  0  0  0
   23.9638   24.5622   25.7057 H   0  0  0  0  0  0
   22.4031   25.0571   25.9021 H   0  0  0  0  0  0
   22.8349   23.5151   26.2960 H   0  0  0  0  0  0
   25.3283   18.7798   23.0590 H   0  0  0  0  0  0
   24.1310   17.6802   22.7820 H   0  0  0  0  0  0
   23.8827   19.2738   22.4382 H   0  0  0  0  0  0
   22.8512   21.2361   24.2258 H   0  0  0  0  0  0
   22.8784   24.6587   23.5897 H   0  0  0  0  0  0
   23.3391   23.0133   24.0099 H   0  0  0  0  0  0
   24.2984   18.1429   25.1231 H   0  0  0  0  0  0
   24.0301   19.8643   24.7518 H   0  0  0  0  0  0
  1  2  1  0  0  0
  1  5  2  0  0  0
  1 19  1  0  0  0
  2  3  2  0  0  0
  2 20  1  0  0  0
  3 15  1  0  0  0
  3 21  1  0  0  0
  4  5  1  0  0  0
  4 15  1  0  0  0
  4 16  2  0  0  0
  5 17  1  0  0  0
  6  7  1  0  0  0
  6 15  2  0  0  0
  6 22  1  0  0  0
  7  8  2  0  0  0
  7  9  1  0  0  0
  8 12  1  0  0  0
  8 16  1  0  0  0
  9 10  2  0  0  0
  9 23  1  0  0  0
 10 11  1  0  0  0
 10 24  1  0  0  0
 11 12  2  0  0  0
 11 25  1  0  0  0
 12 18  1  0  0  0
 13 17  1  0  0  0
 13 26  1  0  0  0
 13 27  1  0  0  0
 13 28  1  0  0  0
 14 18  1  0  0  0
 14 29  1  0  0  0
 14 30  1  0  0  0
 14 31  1  0  0  0
 16 32  1  0  0  0
 17 33  1  0  0  0
 17 34  1  0  0  0
 18 35  1  0  0  0
 18 36  1  0  0  0
M  CHG  2  13   1  14   1
M  END
> <i_pdb_PDB_Model>
1

> <s_pdb_PDB_format_version>
3.0

> <b_ppw_prepared>
1

> <s_ppw_prepared_with_version>
2021-1

> <s_ppw_het_states>
eJztlEsOgzAMRK8SsY5Qxvx7FcQNUHddIe7eOB232VH2ZsEMiTNJ/CSOBs0jrPlBDGmLYRVqR+2pA3WkTtSZulCRzFgiLBI5E8X0ZiwVFgvLRQlWp0cTWxBDXiI8aEeruQMr+lJhth7WPYRX0W3A61QWFp7H5p9dWJGHIJUf6XU+sVyNXh3WA10h1ge9Fb69mOp+lJn8hRbTkmePM4bna98/79IIh+SQHJJDckgOySE5JIfkkO5DSg7pApK0Qxpnh+SQ/vzdJYd0C9J2vgEB6312

$$$$
