@<TRIPOS>MOLECULE
MOL
   36    38     1     0     0
SMALL
bcc


@<TRIPOS>ATOM
      1 C1          20.2710    24.4150    24.0740 ca         1 MOL      -0.039000
      2 C2          18.9120    24.0900    23.9560 ca         1 MOL      -0.146000
      3 C3          18.5090    22.7460    23.9560 ca         1 MOL      -0.032000
      4 C4          20.8480    22.0460    24.1390 ca         1 MOL       0.030000
      5 C5          21.2420    23.4050    24.1590 ca         1 MOL      -0.212300
      6 C6          19.0560    20.3850    24.1120 ca         1 MOL      -0.031000
      7 C7          20.0040    19.3560    24.2490 ca         1 MOL      -0.065000
      8 C8          21.3850    19.6600    24.3040 ca         1 MOL       0.030000
      9 C9          19.5680    18.0210    24.3320 ca         1 MOL      -0.032000
     10 C10         20.5030    16.9910    24.5230 ca         1 MOL      -0.146000
     11 C11         21.8710    17.2910    24.6060 ca         1 MOL      -0.039000
     12 C12         22.3230    18.6130    24.4570 ca         1 MOL      -0.212300
     13 N1          22.9960    24.2780    25.6540 nz         1 MOL      -0.847600
     14 N2          24.3300    18.6270    23.0720 nz         1 MOL      -0.847600
     15 C13         19.4730    21.7250    24.0640 ca         1 MOL      -0.065000
     16 C14         21.7960    21.0060    24.2230 ca         1 MOL      -0.179000
     17 C15         22.6850    23.8410    24.2840 c3         1 MOL       0.180100
     18 C16         23.8160    18.8420    24.4400 c3         1 MOL       0.180100
     19 H1          20.5780    25.4500    24.1000 ha         1 MOL       0.144000
     20 H2          18.1750    24.8740    23.8650 ha         1 MOL       0.180000
     21 H3          17.4620    22.4960    23.8730 ha         1 MOL       0.173000
     22 H4          18.0050    20.1450    24.0440 ha         1 MOL       0.171000
     23 H5          18.5160    17.7900    24.2490 ha         1 MOL       0.173000
     24 H6          20.1690    15.9670    24.6060 ha         1 MOL       0.180000
     25 H7          22.5870    16.5030    24.7860 ha         1 MOL       0.144000
     26 H8          23.9640    24.5620    25.7060 hn         1 MOL       0.462467
     27 H9          22.4030    25.0570    25.9020 hn         1 MOL       0.462467
     28 H10         22.8350    23.5150    26.2960 hn         1 MOL       0.462467
     29 H11         25.3280    18.7800    23.0590 hn         1 MOL       0.462467
     30 H12         24.1310    17.6800    22.7820 hn         1 MOL       0.462467
     31 H13         23.8830    19.2740    22.4380 hn         1 MOL       0.462467
     32 H14         22.8510    21.2360    24.2260 ha         1 MOL       0.107000
     33 H15         22.8780    24.6590    23.5900 hx         1 MOL       0.107700
     34 H16         23.3390    23.0130    24.0100 hx         1 MOL       0.107700
     35 H17         24.2980    18.1430    25.1230 hx         1 MOL       0.107700
     36 H18         24.0300    19.8640    24.7520 hx         1 MOL       0.107700
@<TRIPOS>BOND
     1     1     2 ar  
     2     1     5 ar  
     3     1    19 1   
     4     2     3 ar  
     5     2    20 1   
     6     3    15 ar  
     7     3    21 1   
     8     4     5 ar  
     9     4    15 ar  
    10     4    16 ar  
    11     5    17 1   
    12     6     7 ar  
    13     6    15 ar  
    14     6    22 1   
    15     7     8 ar  
    16     7     9 ar  
    17     8    12 ar  
    18     8    16 ar  
    19     9    10 ar  
    20     9    23 1   
    21    10    11 ar  
    22    10    24 1   
    23    11    12 ar  
    24    11    25 1   
    25    12    18 1   
    26    13    17 1   
    27    13    26 1   
    28    13    27 1   
    29    13    28 1   
    30    14    18 1   
    31    14    29 1   
    32    14    30 1   
    33    14    31 1   
    34    16    32 1   
    35    17    33 1   
    36    17    34 1   
    37    18    35 1   
    38    18    36 1   
@<TRIPOS>SUBSTRUCTURE
     1 MOL         1 TEMP              0 ****  ****    0 ROOT
