@<TRIPOS>MOLECULE
MOL
   50    53     1     0     0
SMALL
bcc


@<TRIPOS>ATOM
      1 C1          32.8780    41.0430    39.9710 ca         1 MOL      -0.077500
      2 C2          31.8460    40.2900    39.3760 ca         1 MOL      -0.112000
      3 C3          33.4970    39.0030    38.1500 ca         1 MOL      -0.112000
      4 C4          34.5320    39.7280    38.7580 ca         1 MOL      -0.077500
      5 C5          34.2260    40.7670    39.6580 ca         1 MOL      -0.263900
      6 C6          35.2730    41.5240    40.2100 ce         1 MOL       0.522400
      7 N1          35.2850    41.8910    41.4700 nv         1 MOL      -0.468100
      8 N2          36.2710    41.9580    39.4770 nv         1 MOL      -0.452200
      9 N3          29.0770    37.7390    35.9470 nb         1 MOL      -0.669000
     10 O1          29.7770    39.0360    37.8030 os         1 MOL      -0.457100
     11 C7          32.1570    39.2830    38.4460 ca         1 MOL      -0.017300
     12 C8          31.0930    38.4850    37.7260 c3         1 MOL       0.166700
     13 C9          28.7840    38.5920    36.9450 ca         1 MOL       0.621600
     14 C10         27.4810    39.0640    37.1760 ca         1 MOL      -0.219300
     15 C11         26.4300    38.6440    36.3360 ca         1 MOL      -0.056000
     16 C12         28.0430    37.3830    35.1660 ca         1 MOL       0.552300
     17 C13         26.7320    37.7650    35.2740 ca         1 MOL      -0.200500
     18 C14         26.8690    36.4550    33.6180 cc         1 MOL       0.431400
     19 C15         26.5880    35.5750    32.4880 ca         1 MOL      -0.035900
     20 N4          28.1340    36.5690    34.0960 nd         1 MOL      -0.595700
     21 C16         27.4530    34.4920    32.2820 ca         1 MOL      -0.097500
     22 C17         27.2910    33.6240    31.2060 ca         1 MOL      -0.082000
     23 C18         26.2200    33.8140    30.3160 ca         1 MOL      -0.251900
     24 C19         25.3340    34.9040    30.5070 ca         1 MOL      -0.082000
     25 C20         25.5300    35.7810    31.5890 ca         1 MOL      -0.097500
     26 C21         26.0340    32.8610    29.3000 ce         1 MOL       0.519400
     27 N5          27.0450    32.2700    28.6820 nv         1 MOL      -0.464600
     28 N6          24.8420    32.3490    29.0660 nv         1 MOL      -0.448700
     29 N7          25.9850    37.1710    34.2580 na         1 MOL      -0.245300
     30 H1          32.6380    41.8330    40.6680 ha         1 MOL       0.151500
     31 H2          30.8160    40.4870    39.6350 ha         1 MOL       0.174500
     32 H3          33.7290    38.2190    37.4450 ha         1 MOL       0.174500
     33 H4          35.5620    39.4890    38.5360 ha         1 MOL       0.151500
     34 H5          36.0560    42.4350    41.8300 hn         1 MOL       0.327950
     35 H6          34.5230    41.6290    42.0800 hn         1 MOL       0.327950
     36 H7          37.0100    42.5000    39.9010 hn         1 MOL       0.327950
     37 H8          36.3000    41.7500    38.4890 hn         1 MOL       0.327950
     38 H9          31.3750    38.3690    36.6790 h1         1 MOL       0.087200
     39 H10         31.0810    37.4670    38.1140 h1         1 MOL       0.087200
     40 H11         27.2900    39.7440    37.9930 ha         1 MOL       0.170000
     41 H12         25.4240    38.9950    36.5130 ha         1 MOL       0.161000
     42 H13         28.2690    34.3150    32.9670 ha         1 MOL       0.177000
     43 H14         27.9860    32.8100    31.0590 ha         1 MOL       0.156000
     44 H15         24.5120    35.0580    29.8230 ha         1 MOL       0.156000
     45 H16         24.8600    36.6170    31.7260 ha         1 MOL       0.177000
     46 H17         26.8660    31.5900    27.9570 hn         1 MOL       0.329450
     47 H18         27.9950    32.4990    28.9360 hn         1 MOL       0.329450
     48 H19         24.7210    31.6650    28.3330 hn         1 MOL       0.329450
     49 H20         24.0490    32.6410    29.6200 hn         1 MOL       0.329450
     50 H21         24.9960    37.3610    34.1810 hn         1 MOL       0.317700
@<TRIPOS>BOND
     1     1     2 ar  
     2     1     5 ar  
     3     1    30 1   
     4     2    11 ar  
     5     2    31 1   
     6     3     4 ar  
     7     3    11 ar  
     8     3    32 1   
     9     4     5 ar  
    10     4    33 1   
    11     5     6 1   
    12     6     7 2   
    13     6     8 1   
    14     7    34 1   
    15     7    35 1   
    16     8    36 1   
    17     8    37 1   
    18     9    13 ar  
    19     9    16 ar  
    20    10    12 1   
    21    10    13 1   
    22    11    12 1   
    23    12    38 1   
    24    12    39 1   
    25    13    14 ar  
    26    14    15 ar  
    27    14    40 1   
    28    15    17 ar  
    29    15    41 1   
    30    16    17 ar  
    31    16    20 1   
    32    17    29 1   
    33    18    19 1   
    34    18    20 2   
    35    18    29 1   
    36    19    21 ar  
    37    19    25 ar  
    38    21    22 ar  
    39    21    42 1   
    40    22    23 ar  
    41    22    43 1   
    42    23    24 ar  
    43    23    26 1   
    44    24    25 ar  
    45    24    44 1   
    46    25    45 1   
    47    26    27 2   
    48    26    28 1   
    49    27    46 1   
    50    27    47 1   
    51    28    48 1   
    52    28    49 1   
    53    29    50 1   
@<TRIPOS>SUBSTRUCTURE
     1 MOL         1 TEMP              0 ****  ****    0 ROOT
