
                    3D
 Schrodinger Suite 2021-1.
 50 53  0  0  1  0            999 V2000
   32.8780   41.0430   39.9710 C   0  0  0  0  0  0
   31.8460   40.2900   39.3760 C   0  0  0  0  0  0
   33.4970   39.0030   38.1500 C   0  0  0  0  0  0
   34.5320   39.7280   38.7580 C   0  0  0  0  0  0
   34.2260   40.7670   39.6580 C   0  0  0  0  0  0
   35.2730   41.5240   40.2100 C   0  0  0  0  0  0
   35.2850   41.8910   41.4700 N   0  0  0  0  0  0
   36.2710   41.9580   39.4770 N   0  3  0  0  0  0
   29.0770   37.7390   35.9470 N   0  0  0  0  0  0
   29.7770   39.0360   37.8030 O   0  0  0  0  0  0
   32.1570   39.2830   38.4460 C   0  0  0  0  0  0
   31.0930   38.4850   37.7260 C   0  0  0  0  0  0
   28.7840   38.5920   36.9450 C   0  0  0  0  0  0
   27.4810   39.0640   37.1760 C   0  0  0  0  0  0
   26.4300   38.6440   36.3360 C   0  0  0  0  0  0
   28.0430   37.3830   35.1660 C   0  0  0  0  0  0
   26.7320   37.7650   35.2740 C   0  0  0  0  0  0
   26.8690   36.4550   33.6180 C   0  0  0  0  0  0
   26.5880   35.5750   32.4880 C   0  0  0  0  0  0
   28.1340   36.5690   34.0960 N   0  0  0  0  0  0
   27.4530   34.4920   32.2820 C   0  0  0  0  0  0
   27.2910   33.6240   31.2060 C   0  0  0  0  0  0
   26.2200   33.8140   30.3160 C   0  0  0  0  0  0
   25.3340   34.9040   30.5070 C   0  0  0  0  0  0
   25.5300   35.7810   31.5890 C   0  0  0  0  0  0
   26.0340   32.8610   29.3000 C   0  0  0  0  0  0
   27.0450   32.2700   28.6820 N   0  3  0  0  0  0
   24.8420   32.3490   29.0660 N   0  0  0  0  0  0
   25.9850   37.1710   34.2580 N   0  0  0  0  0  0
   32.6377   41.8326   40.6676 H   0  0  0  0  0  0
   30.8160   40.4866   39.6346 H   0  0  0  0  0  0
   33.7291   38.2187   37.4447 H   0  0  0  0  0  0
   35.5615   39.4891   38.5357 H   0  0  0  0  0  0
   36.0559   42.4351   41.8302 H   0  0  0  0  0  0
   34.5233   41.6293   42.0795 H   0  0  0  0  0  0
   37.0103   42.5003   39.9007 H   0  0  0  0  0  0
   36.2999   41.7498   38.4891 H   0  0  0  0  0  0
   31.3751   38.3694   36.6795 H   0  0  0  0  0  0
   31.0811   37.4667   38.1145 H   0  0  0  0  0  0
   27.2899   39.7441   37.9929 H   0  0  0  0  0  0
   25.4240   38.9946   36.5133 H   0  0  0  0  0  0
   28.2691   34.3149   32.9668 H   0  0  0  0  0  0
   27.9860   32.8105   31.0590 H   0  0  0  0  0  0
   24.5125   35.0584   29.8231 H   0  0  0  0  0  0
   24.8602   36.6171   31.7258 H   0  0  0  0  0  0
   26.8658   31.5902   27.9568 H   0  0  0  0  0  0
   27.9954   32.4990   28.9358 H   0  0  0  0  0  0
   24.7213   31.6648   28.3329 H   0  0  0  0  0  0
   24.0494   32.6409   29.6198 H   0  0  0  0  0  0
   24.9961   37.3613   34.1810 H   0  0  0  0  0  0
  1  2  2  0  0  0
  1  5  1  0  0  0
  1 30  1  0  0  0
  2 11  1  0  0  0
  2 31  1  0  0  0
  3  4  1  0  0  0
  3 11  2  0  0  0
  3 32  1  0  0  0
  4  5  2  0  0  0
  4 33  1  0  0  0
  5  6  1  0  0  0
  6  7  1  0  0  0
  6  8  2  0  0  0
  7 34  1  0  0  0
  7 35  1  0  0  0
  8 36  1  0  0  0
  8 37  1  0  0  0
  9 13  2  0  0  0
  9 16  1  0  0  0
 10 12  1  0  0  0
 10 13  1  0  0  0
 11 12  1  0  0  0
 12 38  1  0  0  0
 12 39  1  0  0  0
 13 14  1  0  0  0
 14 15  2  0  0  0
 14 40  1  0  0  0
 15 17  1  0  0  0
 15 41  1  0  0  0
 16 17  2  0  0  0
 16 20  1  0  0  0
 17 29  1  0  0  0
 18 19  1  0  0  0
 18 20  2  0  0  0
 18 29  1  0  0  0
 19 21  1  0  0  0
 19 25  2  0  0  0
 21 22  2  0  0  0
 21 42  1  0  0  0
 22 23  1  0  0  0
 22 43  1  0  0  0
 23 24  2  0  0  0
 23 26  1  0  0  0
 24 25  1  0  0  0
 24 44  1  0  0  0
 25 45  1  0  0  0
 26 27  2  0  0  0
 26 28  1  0  0  0
 27 46  1  0  0  0
 27 47  1  0  0  0
 28 48  1  0  0  0
 28 49  1  0  0  0
 29 50  1  0  0  0
M  CHG  2   8   1  27   1
M  END
> <i_pdb_PDB_Model>
1

> <s_pdb_PDB_format_version>
3.0

> <b_ppw_prepared>
1

> <s_ppw_prepared_with_version>
2021-1

> <s_ppw_het_states>
eJxVkktuwzAQQ68ieK0GIhP/epXANwi66yrI3TtUhnLqhUlKwpvR2M8J03e5x4Na2lHLnanX1FvqnLqkrqlbLZDumdFsTISRMBOGwlQYC3Ox2ZhMkzl6NZkm02SaTJO5Zqc0mZ0sp9sHi71eLbNPhiJ9VLidVsvM8cxpQ5c8EbqedssDUU4jGN6nNTIN6QxXB3zuaNU9dOPKMnBBYTWqEbRDz1Z3huerY3TAv50RwhCfwUW1Sg+tG3ctow/BEXzTvjqmq0bdWw/9X4r01S7R2XPa499sF6wt6BPbOy07XrX8/D4e7/dxvP4ARBGUOg==

$$$$
