@<TRIPOS>MOLECULE
MOL
   63    65     1     0     0
SMALL
bcc


@<TRIPOS>ATOM
      1 C1          12.7040    21.3920     9.3210 c          1 MOL       0.662900
      2 O1          12.7970    20.3750     8.6520 o          1 MOL      -0.587100
      3 N1          11.8350    21.4430    10.3320 ns         1 MOL      -0.463100
      4 C2          10.9050    22.3760    10.6630 cc         1 MOL      -0.016400
      5 C3           9.6800    22.0610    11.3150 cc         1 MOL      -0.187000
      6 C4           8.9550    23.2310    11.4670 cd         1 MOL      -0.173900
      7 N2           9.7620    24.2550    10.9520 na         1 MOL       0.000900
      8 C5          10.8770    23.7170    10.4290 cd         1 MOL      -0.176300
      9 C6           9.5240    25.6910    10.8690 c3         1 MOL       0.015600
     10 C7           7.7320    23.5400    12.1780 c          1 MOL       0.709700
     11 O2           7.3790    24.7280    12.3720 o          1 MOL      -0.618100
     12 N3           6.9980    22.5270    12.6200 ns         1 MOL      -0.436100
     13 C8           5.6970    22.6470    13.1950 cc         1 MOL      -0.026400
     14 C9           5.0050    21.6550    13.8550 cc         1 MOL      -0.182000
     15 C10          3.7930    22.1680    14.2420 cd         1 MOL      -0.196900
     16 N4           3.7400    23.4600    13.8470 na         1 MOL      -0.002100
     17 C11          4.9000    23.7600    13.1950 cd         1 MOL      -0.125300
     18 C12          2.6690    24.4080    14.0500 c3         1 MOL       0.015600
     19 C13          2.6730    21.5650    15.0100 c          1 MOL       0.717700
     20 O3           1.5640    22.1030    15.1670 o          1 MOL      -0.620100
     21 N5           2.9020    20.3880    15.5520 ns         1 MOL      -0.445100
     22 C14          1.8720    19.6490    16.2240 cc         1 MOL      -0.010400
     23 C15          2.2240    18.4670    16.9250 cc         1 MOL      -0.166000
     24 C16          1.0680    17.9450    17.4490 cd         1 MOL      -0.228900
     25 N6           0.0330    18.8090    17.0780 na         1 MOL       0.002900
     26 C17          0.5370    19.8010    16.3400 cd         1 MOL      -0.108300
     27 C18         -1.3980    18.6780    17.3200 c3         1 MOL       0.015600
     28 C19          0.7640    16.9670    18.4670 c          1 MOL       0.731700
     29 O4          -0.3300    16.4340    18.6070 o          1 MOL      -0.689100
     30 N7           1.8070    16.6980    19.2670 ns         1 MOL      -0.577900
     31 C20          1.7420    15.5200    20.1740 c3         1 MOL       0.099000
     32 C21          2.1020    14.2780    19.4050 c3         1 MOL      -0.192700
     33 C22          1.8160    13.0480    20.2600 c2         1 MOL       0.445800
     34 N8           0.5870    12.6390    20.3710 nv         1 MOL      -0.468600
     35 N9           2.8280    12.4480    20.8530 nv         1 MOL      -0.452700
     36 H1          13.3240    22.2470     9.0940 h5         1 MOL       0.041200
     37 H2          11.8040    20.6950    11.0090 hn         1 MOL       0.324500
     38 H3           9.4650    21.0410    11.5960 ha         1 MOL       0.151000
     39 H4          11.6850    24.1880     9.8890 h4         1 MOL       0.179000
     40 H5          10.3820    26.1760    10.4030 h1         1 MOL       0.069700
     41 H6           8.6320    25.8780    10.2710 h1         1 MOL       0.069700
     42 H7           9.3790    26.0940    11.8710 h1         1 MOL       0.069700
     43 H8           7.3530    21.5830    12.5620 hn         1 MOL       0.325500
     44 H9           5.4500    20.6790    13.9820 ha         1 MOL       0.145000
     45 H10          5.2420    24.6690    12.7240 h4         1 MOL       0.213000
     46 H11          2.9420    25.3660    13.6080 h1         1 MOL       0.069367
     47 H12          1.7600    24.0370    13.5770 h1         1 MOL       0.069367
     48 H13          2.4960    24.5380    15.1180 h1         1 MOL       0.069367
     49 H14          3.8250    19.9800    15.5020 hn         1 MOL       0.327500
     50 H15          3.2550    18.1480    16.9610 ha         1 MOL       0.149000
     51 H16          0.0460    20.6380    15.8660 h4         1 MOL       0.222000
     52 H17         -1.9190    19.5350    16.8930 h1         1 MOL       0.068700
     53 H18         -1.7630    17.7620    16.8550 h1         1 MOL       0.068700
     54 H19         -1.5830    18.6390    18.3930 h1         1 MOL       0.068700
     55 H20          2.6240    17.2920    19.2490 hn         1 MOL       0.333500
     56 H21          0.7310    15.4220    20.5700 h1         1 MOL       0.079700
     57 H22          2.4460    15.6550    20.9950 h1         1 MOL       0.079700
     58 H23          3.1610    14.3040    19.1490 hc         1 MOL       0.107700
     59 H24          1.5080    14.2320    18.4920 hc         1 MOL       0.107700
     60 H25          0.3740    11.8270    20.9320 hn         1 MOL       0.331950
     61 H26         -0.1550    13.1340    19.8960 hn         1 MOL       0.331950
     62 H27          2.6660    11.6310    21.4250 hn         1 MOL       0.331950
     63 H28          3.7660    12.8050    20.7360 hn         1 MOL       0.331950
@<TRIPOS>BOND
     1     1     2 2   
     2     1     3 1   
     3     1    36 1   
     4     3     4 1   
     5     3    37 1   
     6     4     5 1   
     7     4     8 2   
     8     5     6 2   
     9     5    38 1   
    10     6     7 1   
    11     6    10 1   
    12     7     8 1   
    13     7     9 1   
    14     8    39 1   
    15     9    40 1   
    16     9    41 1   
    17     9    42 1   
    18    10    11 2   
    19    10    12 1   
    20    12    13 1   
    21    12    43 1   
    22    13    14 1   
    23    13    17 2   
    24    14    15 2   
    25    14    44 1   
    26    15    16 1   
    27    15    19 1   
    28    16    17 1   
    29    16    18 1   
    30    17    45 1   
    31    18    46 1   
    32    18    47 1   
    33    18    48 1   
    34    19    20 2   
    35    19    21 1   
    36    21    22 1   
    37    21    49 1   
    38    22    23 1   
    39    22    26 2   
    40    23    24 2   
    41    23    50 1   
    42    24    25 1   
    43    24    28 1   
    44    25    26 1   
    45    25    27 1   
    46    26    51 1   
    47    27    52 1   
    48    27    53 1   
    49    27    54 1   
    50    28    29 2   
    51    28    30 1   
    52    30    31 1   
    53    30    55 1   
    54    31    32 1   
    55    31    56 1   
    56    31    57 1   
    57    32    33 1   
    58    32    58 1   
    59    32    59 1   
    60    33    34 2   
    61    33    35 1   
    62    34    60 1   
    63    34    61 1   
    64    35    62 1   
    65    35    63 1   
@<TRIPOS>SUBSTRUCTURE
     1 MOL         1 TEMP              0 ****  ****    0 ROOT
