
                    3D
 Schrodinger Suite 2021-1.
 63 65  0  0  1  0            999 V2000
   12.7040   21.3920    9.3210 C   0  0  0  0  0  0
   12.7970   20.3750    8.6520 O   0  0  0  0  0  0
   11.8350   21.4430   10.3320 N   0  0  0  0  0  0
   10.9050   22.3760   10.6630 C   0  0  0  0  0  0
    9.6800   22.0610   11.3150 C   0  0  0  0  0  0
    8.9550   23.2310   11.4670 C   0  0  0  0  0  0
    9.7620   24.2550   10.9520 N   0  0  0  0  0  0
   10.8770   23.7170   10.4290 C   0  0  0  0  0  0
    9.5240   25.6910   10.8690 C   0  0  0  0  0  0
    7.7320   23.5400   12.1780 C   0  0  0  0  0  0
    7.3790   24.7280   12.3720 O   0  0  0  0  0  0
    6.9980   22.5270   12.6200 N   0  0  0  0  0  0
    5.6970   22.6470   13.1950 C   0  0  0  0  0  0
    5.0050   21.6550   13.8550 C   0  0  0  0  0  0
    3.7930   22.1680   14.2420 C   0  0  0  0  0  0
    3.7400   23.4600   13.8470 N   0  0  0  0  0  0
    4.9000   23.7600   13.1950 C   0  0  0  0  0  0
    2.6690   24.4080   14.0500 C   0  0  0  0  0  0
    2.6730   21.5650   15.0100 C   0  0  0  0  0  0
    1.5640   22.1030   15.1670 O   0  0  0  0  0  0
    2.9020   20.3880   15.5520 N   0  0  0  0  0  0
    1.8720   19.6490   16.2240 C   0  0  0  0  0  0
    2.2240   18.4670   16.9250 C   0  0  0  0  0  0
    1.0680   17.9450   17.4490 C   0  0  0  0  0  0
    0.0330   18.8090   17.0780 N   0  0  0  0  0  0
    0.5370   19.8010   16.3400 C   0  0  0  0  0  0
   -1.3980   18.6780   17.3200 C   0  0  0  0  0  0
    0.7640   16.9670   18.4670 C   0  0  0  0  0  0
   -0.3300   16.4340   18.6070 O   0  0  0  0  0  0
    1.8070   16.6980   19.2670 N   0  0  0  0  0  0
    1.7420   15.5200   20.1740 C   0  0  0  0  0  0
    2.1020   14.2780   19.4050 C   0  0  0  0  0  0
    1.8160   13.0480   20.2600 C   0  0  0  0  0  0
    0.5870   12.6390   20.3710 N   0  3  0  0  0  0
    2.8280   12.4480   20.8530 N   0  0  0  0  0  0
   13.3240   22.2465    9.0936 H   0  0  0  0  0  0
   11.8040   20.6946   11.0095 H   0  0  0  0  0  0
    9.4646   21.0407   11.5960 H   0  0  0  0  0  0
   11.6854   24.1880    9.8895 H   0  0  0  0  0  0
   10.3820   26.1757   10.4031 H   0  0  0  0  0  0
    8.6324   25.8781   10.2705 H   0  0  0  0  0  0
    9.3794   26.0944   11.8712 H   0  0  0  0  0  0
    7.3530   21.5832   12.5623 H   0  0  0  0  0  0
    5.4499   20.6791   13.9820 H   0  0  0  0  0  0
    5.2425   24.6694   12.7238 H   0  0  0  0  0  0
    2.9424   25.3660   13.6078 H   0  0  0  0  0  0
    1.7598   24.0365   13.5773 H   0  0  0  0  0  0
    2.4956   24.5378   15.1183 H   0  0  0  0  0  0
    3.8245   19.9798   15.5018 H   0  0  0  0  0  0
    3.2550   18.1476   16.9614 H   0  0  0  0  0  0
    0.0456   20.6379   15.8661 H   0  0  0  0  0  0
   -1.9192   19.5348   16.8930 H   0  0  0  0  0  0
   -1.7634   17.7624   16.8549 H   0  0  0  0  0  0
   -1.5834   18.6386   18.3934 H   0  0  0  0  0  0
    2.6237   17.2920   19.2490 H   0  0  0  0  0  0
    0.7311   15.4218   20.5697 H   0  0  0  0  0  0
    2.4455   15.6551   20.9955 H   0  0  0  0  0  0
    3.1612   14.3038   19.1488 H   0  0  0  0  0  0
    1.5085   14.2315   18.4919 H   0  0  0  0  0  0
    0.3738   11.8266   20.9320 H   0  0  0  0  0  0
   -0.1547   13.1336   19.8962 H   0  0  0  0  0  0
    2.6662   11.6314   21.4249 H   0  0  0  0  0  0
    3.7656   12.8046   20.7357 H   0  0  0  0  0  0
  1  2  2  0  0  0
  1  3  1  0  0  0
  1 36  1  0  0  0
  3  4  1  0  0  0
  3 37  1  0  0  0
  4  5  1  0  0  0
  4  8  2  0  0  0
  5  6  2  0  0  0
  5 38  1  0  0  0
  6  7  1  0  0  0
  6 10  1  0  0  0
  7  8  1  0  0  0
  7  9  1  0  0  0
  8 39  1  0  0  0
  9 40  1  0  0  0
  9 41  1  0  0  0
  9 42  1  0  0  0
 10 11  2  0  0  0
 10 12  1  0  0  0
 12 13  1  0  0  0
 12 43  1  0  0  0
 13 14  1  0  0  0
 13 17  2  0  0  0
 14 15  2  0  0  0
 14 44  1  0  0  0
 15 16  1  0  0  0
 15 19  1  0  0  0
 16 17  1  0  0  0
 16 18  1  0  0  0
 17 45  1  0  0  0
 18 46  1  0  0  0
 18 47  1  0  0  0
 18 48  1  0  0  0
 19 20  2  0  0  0
 19 21  1  0  0  0
 21 22  1  0  0  0
 21 49  1  0  0  0
 22 23  1  0  0  0
 22 26  2  0  0  0
 23 24  2  0  0  0
 23 50  1  0  0  0
 24 25  1  0  0  0
 24 28  1  0  0  0
 25 26  1  0  0  0
 25 27  1  0  0  0
 26 51  1  0  0  0
 27 52  1  0  0  0
 27 53  1  0  0  0
 27 54  1  0  0  0
 28 29  2  0  0  0
 28 30  1  0  0  0
 30 31  1  0  0  0
 30 55  1  0  0  0
 31 32  1  0  0  0
 31 56  1  0  0  0
 31 57  1  0  0  0
 32 33  1  0  0  0
 32 58  1  0  0  0
 32 59  1  0  0  0
 33 34  2  0  0  0
 33 35  1  0  0  0
 34 60  1  0  0  0
 34 61  1  0  0  0
 35 62  1  0  0  0
 35 63  1  0  0  0
M  CHG  1  34   1
M  END
> <s_pdb_PDB_format_version>
3.0

> <b_ppw_prepared>
1

> <s_ppw_prepared_with_version>
2021-1

> <s_ppw_het_states>
eJxNk0uSgzAMRK/iYs1MWRLmM1dJcYNUdlmlcveRjB7AIuq2xXMjVz6DDH/l4Y+Mpe5jeWhWyzplbVnnrEvWNeuWVSoCooAUmAJUoApYgSuABbJC1jMrZIWskBWyQlbIClkhG2SDbOcYIJuTpYtODhUz8z7tKcdiNIyFXq/tkmv2+tKc0uuSDS5jdpLDXS+5pezbwoFhlJ0QnN/FdDcL78Rqw0SymbYw5znz8c5lCBMtcQ16GsmdEEqcEGp3w/fGatyRclnKfLrhnFjV+W6IEy1xb4oxZhbCiBPCiBPCzttxYSTopidw91N/HfEZbPG/xGGGyVy7rLWF2+6uNZx8x/J6P5/H775//wFQibEL

$$$$
