
                    3D
 Schrodinger Suite 2021-1.
 49 50  0  0  1  0            999 V2000
    9.8770   24.8530    5.8620 C   0  0  0  0  0  0
   10.9430   24.0160    5.4300 C   0  0  0  0  0  0
   11.8100   24.4330    4.3800 C   0  0  0  0  0  0
   11.6270   25.6770    3.7350 C   0  0  0  0  0  0
   10.5770   26.5000    4.1730 C   0  0  0  0  0  0
    9.7120   26.0910    5.2230 C   0  0  0  0  0  0
   12.3970   26.0510    2.6280 C   0  0  0  0  0  0
    9.3290   23.4010    7.6290 C   0  0  0  0  0  0
    8.4820   23.2980    8.8730 C   0  0  0  0  0  0
    8.9510   19.6000   13.5980 C   0  0  0  0  0  0
   10.3290   19.4170   13.7960 C   0  0  0  0  0  0
   10.8000   18.6670   14.9020 C   0  0  0  0  0  0
    9.9000   18.0830   15.8000 C   0  0  0  0  0  0
    8.5140   18.2590   15.6030 C   0  0  0  0  0  0
    8.0510   19.0150   14.5050 C   0  0  0  0  0  0
   10.3410   17.3040   16.8610 C   0  0  0  0  0  0
    9.1960   20.8550   11.5900 C   0  0  0  0  0  0
    8.2890   21.7360   10.7290 C   0  0  0  0  0  0
   12.2670   27.2670    2.1270 N   0  3  0  0  0  0
   13.1580   25.1640    2.0020 N   0  0  0  0  0  0
    9.6040   17.1330   17.9580 N   0  3  0  0  0  0
   11.5320   16.6830   16.7990 N   0  0  0  0  0  0
    8.9700   24.5380    6.8600 O   0  0  0  0  0  0
    8.3620   20.3150   12.5860 O   0  0  0  0  0  0
    9.0130   22.2030    9.5990 O   0  0  0  0  0  0
   11.0999   23.0559    5.8991 H   0  0  0  0  0  0
   12.6226   23.7950    4.0652 H   0  0  0  0  0  0
   10.4160   27.4624    3.7100 H   0  0  0  0  0  0
    8.9153   26.7537    5.5271 H   0  0  0  0  0  0
    9.2012   22.5010    7.0275 H   0  0  0  0  0  0
   10.3798   23.4702    7.9102 H   0  0  0  0  0  0
    7.4517   23.0800    8.5920 H   0  0  0  0  0  0
    8.5912   24.2091    9.4613 H   0  0  0  0  0  0
   11.0361   19.8490   13.1033 H   0  0  0  0  0  0
   11.8615   18.5424   15.0572 H   0  0  0  0  0  0
    7.8101   17.8156   16.2917 H   0  0  0  0  0  0
    6.9872   19.1408   14.3673 H   0  0  0  0  0  0
    9.9634   21.4727   12.0565 H   0  0  0  0  0  0
    9.6007   20.0474   10.9800 H   0  0  0  0  0  0
    7.9451   22.5870   11.3169 H   0  0  0  0  0  0
    7.4295   21.1549   10.3947 H   0  0  0  0  0  0
   12.8186   27.5457    1.3282 H   0  0  0  0  0  0
   11.6160   27.9176    2.5430 H   0  0  0  0  0  0
   13.7095   25.4455    1.2041 H   0  0  0  0  0  0
   13.1862   24.2068    2.3231 H   0  0  0  0  0  0
    9.9501   16.5606   18.7148 H   0  0  0  0  0  0
    8.6993   17.5758   18.0327 H   0  0  0  0  0  0
   11.8476   16.1175   17.5741 H   0  0  0  0  0  0
   12.1110   16.7820   15.9774 H   0  0  0  0  0  0
  1  2  2  0  0  0
  1  6  1  0  0  0
  1 23  1  0  0  0
  2  3  1  0  0  0
  2 26  1  0  0  0
  3  4  2  0  0  0
  3 27  1  0  0  0
  4  5  1  0  0  0
  4  7  1  0  0  0
  5  6  2  0  0  0
  5 28  1  0  0  0
  6 29  1  0  0  0
  7 19  2  0  0  0
  7 20  1  0  0  0
  8  9  1  0  0  0
  8 23  1  0  0  0
  8 30  1  0  0  0
  8 31  1  0  0  0
  9 25  1  0  0  0
  9 32  1  0  0  0
  9 33  1  0  0  0
 10 11  2  0  0  0
 10 15  1  0  0  0
 10 24  1  0  0  0
 11 12  1  0  0  0
 11 34  1  0  0  0
 12 13  2  0  0  0
 12 35  1  0  0  0
 13 14  1  0  0  0
 13 16  1  0  0  0
 14 15  2  0  0  0
 14 36  1  0  0  0
 15 37  1  0  0  0
 16 21  2  0  0  0
 16 22  1  0  0  0
 17 18  1  0  0  0
 17 24  1  0  0  0
 17 38  1  0  0  0
 17 39  1  0  0  0
 18 25  1  0  0  0
 18 40  1  0  0  0
 18 41  1  0  0  0
 19 42  1  0  0  0
 19 43  1  0  0  0
 20 44  1  0  0  0
 20 45  1  0  0  0
 21 46  1  0  0  0
 21 47  1  0  0  0
 22 48  1  0  0  0
 22 49  1  0  0  0
M  CHG  2  19   1  21   1
M  END
> <s_pdb_PDB_format_version>
3.0

> <b_ppw_prepared>
1

> <s_ppw_prepared_with_version>
2021-1

> <s_ppw_het_states>
eJxNkEsSgzAMQ6+SYZ12kPn3Kgw3YLrriuHutYMUYIHkYF5sHQ2aT1r9QU7tltNq1I7aUwfqSJ2oM3WhopUREUJCTAgKUSEsxIXAcDLKZCIbdCKyiWwiWyGHi828zworp5H/xmknTk6yrj2bXQeeup1oh4IwRhDDycd8YCTLbest0SpgpBQBWS2eX2ILKMOID8oxIjRlidoWRV2sv2imXA3PotJi+vlR3JfOGtSrV/v2gY4zp+9v36/3tp1/pX930w==

$$$$
