@<TRIPOS>MOLECULE
MOL
   49    50     1     0     0
SMALL
bcc


@<TRIPOS>ATOM
      1 C1           9.8770    24.8530     5.8620 ca         1 MOL       0.208100
      2 C2          10.9430    24.0160     5.4300 ca         1 MOL      -0.182500
      3 C3          11.8100    24.4330     4.3800 ca         1 MOL      -0.038250
      4 C4          11.6270    25.6770     3.7350 ca         1 MOL      -0.308900
      5 C5          10.5770    26.5000     4.1730 ca         1 MOL      -0.038250
      6 C6           9.7120    26.0910     5.2230 ca         1 MOL      -0.182500
      7 C7          12.3970    26.0510     2.6280 ce         1 MOL       0.528400
      8 C8           9.3290    23.4010     7.6290 c3         1 MOL       0.118400
      9 C9           8.4820    23.2980     8.8730 c3         1 MOL       0.125400
     10 C10          8.9510    19.6000    13.5980 ca         1 MOL       0.208100
     11 C11         10.3290    19.4170    13.7960 ca         1 MOL      -0.182500
     12 C12         10.8000    18.6670    14.9020 ca         1 MOL      -0.038250
     13 C13          9.9000    18.0830    15.8000 ca         1 MOL      -0.308900
     14 C14          8.5140    18.2590    15.6030 ca         1 MOL      -0.038250
     15 C15          8.0510    19.0150    14.5050 ca         1 MOL      -0.182500
     16 C16         10.3410    17.3040    16.8610 ce         1 MOL       0.528400
     17 C17          9.1960    20.8550    11.5900 c3         1 MOL       0.118400
     18 C18          8.2890    21.7360    10.7290 c3         1 MOL       0.125400
     19 N1          12.2670    27.2670     2.1270 nv         1 MOL      -0.471600
     20 N2          13.1580    25.1640     2.0020 nv         1 MOL      -0.455700
     21 N3           9.6040    17.1330    17.9580 nv         1 MOL      -0.471600
     22 N4          11.5320    16.6830    16.7990 nv         1 MOL      -0.455700
     23 O1           8.9700    24.5380     6.8600 os         1 MOL      -0.309900
     24 O2           8.3620    20.3150    12.5860 os         1 MOL      -0.309900
     25 O3           9.0130    22.2030     9.5990 os         1 MOL      -0.430600
     26 H1          11.1000    23.0560     5.8990 ha         1 MOL       0.174500
     27 H2          12.6230    23.7950     4.0650 ha         1 MOL       0.151500
     28 H3          10.4160    27.4620     3.7100 ha         1 MOL       0.151500
     29 H4           8.9150    26.7540     5.5270 ha         1 MOL       0.174500
     30 H5           9.2010    22.5010     7.0270 h1         1 MOL       0.069700
     31 H6          10.3800    23.4700     7.9100 h1         1 MOL       0.069700
     32 H7           7.4520    23.0800     8.5920 h1         1 MOL       0.063700
     33 H8           8.5910    24.2090     9.4610 h1         1 MOL       0.063700
     34 H9          11.0360    19.8490    13.1030 ha         1 MOL       0.174500
     35 H10         11.8610    18.5420    15.0570 ha         1 MOL       0.151500
     36 H11          7.8100    17.8160    16.2920 ha         1 MOL       0.151500
     37 H12          6.9870    19.1410    14.3670 ha         1 MOL       0.174500
     38 H13          9.9630    21.4730    12.0560 h1         1 MOL       0.069700
     39 H14          9.6010    20.0470    10.9800 h1         1 MOL       0.069700
     40 H15          7.9450    22.5870    11.3170 h1         1 MOL       0.063700
     41 H16          7.4290    21.1550    10.3950 h1         1 MOL       0.063700
     42 H17         12.8190    27.5460     1.3280 hn         1 MOL       0.326575
     43 H18         11.6160    27.9180     2.5430 hn         1 MOL       0.326575
     44 H19         13.7100    25.4450     1.2040 hn         1 MOL       0.326575
     45 H20         13.1860    24.2070     2.3230 hn         1 MOL       0.326575
     46 H21          9.9500    16.5610    18.7150 hn         1 MOL       0.326575
     47 H22          8.6990    17.5760    18.0330 hn         1 MOL       0.326575
     48 H23         11.8480    16.1170    17.5740 hn         1 MOL       0.326575
     49 H24         12.1110    16.7820    15.9770 hn         1 MOL       0.326575
@<TRIPOS>BOND
     1     1     2 ar  
     2     1     6 ar  
     3     1    23 1   
     4     2     3 ar  
     5     2    26 1   
     6     3     4 ar  
     7     3    27 1   
     8     4     5 ar  
     9     4     7 1   
    10     5     6 ar  
    11     5    28 1   
    12     6    29 1   
    13     7    19 2   
    14     7    20 1   
    15     8     9 1   
    16     8    23 1   
    17     8    30 1   
    18     8    31 1   
    19     9    25 1   
    20     9    32 1   
    21     9    33 1   
    22    10    11 ar  
    23    10    15 ar  
    24    10    24 1   
    25    11    12 ar  
    26    11    34 1   
    27    12    13 ar  
    28    12    35 1   
    29    13    14 ar  
    30    13    16 1   
    31    14    15 ar  
    32    14    36 1   
    33    15    37 1   
    34    16    21 2   
    35    16    22 1   
    36    17    18 1   
    37    17    24 1   
    38    17    38 1   
    39    17    39 1   
    40    18    25 1   
    41    18    40 1   
    42    18    41 1   
    43    19    42 1   
    44    19    43 1   
    45    20    44 1   
    46    20    45 1   
    47    21    46 1   
    48    21    47 1   
    49    22    48 1   
    50    22    49 1   
@<TRIPOS>SUBSTRUCTURE
     1 MOL         1 TEMP              0 ****  ****    0 ROOT
