@<TRIPOS>MOLECULE
MOL
   70    77     1     0     0
SMALL
bcc


@<TRIPOS>ATOM
      1 N1          12.5020    16.6410    82.2500 nz         1 MOL      -0.837600
      2 C1          11.3040    16.8190    83.1230 c3         1 MOL       0.106500
      3 C2          10.0470    16.8740    82.2330 c3         1 MOL       0.136800
      4 N2          10.2180    18.1530    81.6660 nh         1 MOL      -0.616000
      5 C3           9.8720    18.8540    82.8310 c3         1 MOL       0.139800
      6 C4          11.1600    18.2610    83.6560 c3         1 MOL      -0.120400
      7 C5           9.6480    18.5510    80.5830 ca         1 MOL       0.044600
      8 C6          10.3120    19.3570    79.6270 ca         1 MOL      -0.091000
      9 C7           9.4720    19.8870    78.6500 ca         1 MOL      -0.080200
     10 C8           8.1020    19.5390    78.6990 ca         1 MOL       0.091400
     11 C9           7.5720    18.6930    79.6370 ca         1 MOL      -0.054000
     12 C10          8.3550    18.1680    80.5840 ca         1 MOL      -0.179000
     13 N3           9.5520    20.7440    77.5690 na         1 MOL      -0.278300
     14 C11          8.2580    20.8930    77.0310 cc         1 MOL       0.507400
     15 N4           7.4040    20.2000    77.7100 nd         1 MOL      -0.553100
     16 C12          7.8050    21.6030    75.9990 ca         1 MOL      -0.126900
     17 C13          8.6630    22.0060    75.0200 ca         1 MOL      -0.116000
     18 C14          8.1880    22.7630    73.9610 ca         1 MOL      -0.082200
     19 C15          6.8780    23.1440    73.8470 ca         1 MOL       0.097400
     20 C16          6.0000    22.6900    74.8760 ca         1 MOL      -0.073000
     21 C17          6.4590    21.9090    75.9650 ca         1 MOL      -0.106000
     22 N5           8.8080    23.2470    72.9130 na         1 MOL      -0.283300
     23 C18          7.9510    23.9530    72.1400 cc         1 MOL       0.498400
     24 N6           6.7670    23.9490    72.6930 nd         1 MOL      -0.555100
     25 C19          8.3600    24.5390    70.9790 ca         1 MOL      -0.118900
     26 C20          9.5700    24.2240    70.3180 ca         1 MOL      -0.118000
     27 C21          9.8970    24.9260    69.1280 ca         1 MOL      -0.081200
     28 C22          9.0210    25.9250    68.6540 ca         1 MOL       0.094400
     29 C23          7.8210    26.1810    69.3410 ca         1 MOL      -0.075000
     30 C24          7.4660    25.4920    70.5090 ca         1 MOL      -0.107000
     31 N7          10.9220    24.9120    68.2360 na         1 MOL      -0.283300
     32 C25         10.6640    25.8850    67.2560 cc         1 MOL       0.499400
     33 N8           9.5310    26.5210    67.5100 nd         1 MOL      -0.562100
     34 C26         11.4700    26.1400    66.1660 ca         1 MOL      -0.167900
     35 C27         12.5630    25.3110    66.0000 ca         1 MOL      -0.062500
     36 C28         13.3290    25.4200    64.8280 ca         1 MOL      -0.186500
     37 C29         12.9880    26.3720    63.8210 ca         1 MOL       0.149100
     38 C30         11.9030    27.2810    64.0430 ca         1 MOL      -0.186500
     39 C31         11.1460    27.1470    65.2310 ca         1 MOL      -0.062500
     40 O1          13.7000    26.3200    62.6060 os         1 MOL      -0.319900
     41 C32         13.7350    25.1080    61.7960 c3         1 MOL       0.110700
     42 H1          13.3340    16.6030    82.8220 hn         1 MOL       0.460800
     43 H2          12.4140    15.7810    81.7280 hn         1 MOL       0.460800
     44 H3          12.5700    17.4180    81.6090 hn         1 MOL       0.460800
     45 H4          11.2360    16.0670    83.9090 hx         1 MOL       0.118700
     46 H5           9.1620    16.8830    82.8690 h1         1 MOL       0.083700
     47 H6          10.1350    16.1230    81.4480 h1         1 MOL       0.083700
     48 H7           8.9690    18.4030    83.2430 h1         1 MOL       0.079700
     49 H8          10.0430    19.9150    82.6520 h1         1 MOL       0.079700
     50 H9          12.0500    18.8330    83.3940 hc         1 MOL       0.088200
     51 H10         10.9230    18.2300    84.7200 hc         1 MOL       0.088200
     52 H11         11.3780    19.5120    79.6990 ha         1 MOL       0.144000
     53 H12          6.5200    18.4500    79.6120 ha         1 MOL       0.163000
     54 H13          7.9990    17.4690    81.3270 ha         1 MOL       0.125000
     55 H14         10.4430    21.1370    77.3010 hn         1 MOL       0.312700
     56 H15          9.7070    21.7350    75.0720 ha         1 MOL       0.132000
     57 H16          4.9500    22.9400    74.8390 ha         1 MOL       0.162000
     58 H17          5.8050    21.5550    76.7480 ha         1 MOL       0.157000
     59 H18          9.7930    23.0670    72.7810 hn         1 MOL       0.308700
     60 H19         10.2230    23.4630    70.7200 ha         1 MOL       0.134000
     61 H20          7.1370    26.9300    68.9720 ha         1 MOL       0.159000
     62 H21          6.5430    25.6750    71.0400 ha         1 MOL       0.157000
     63 H22         11.6890    24.2660    68.3580 hn         1 MOL       0.307700
     64 H23         12.8170    24.5930    66.7650 ha         1 MOL       0.145000
     65 H24         14.1860    24.7790    64.6820 ha         1 MOL       0.151500
     66 H25         11.6800    28.0450    63.3120 ha         1 MOL       0.151500
     67 H26         10.3200    27.8160    65.4220 ha         1 MOL       0.145000
     68 H27         14.3370    25.2830    60.9040 h1         1 MOL       0.049367
     69 H28         14.1730    24.2960    62.3760 h1         1 MOL       0.049367
     70 H29         12.7210    24.8380    61.5020 h1         1 MOL       0.049367
@<TRIPOS>BOND
     1     1     2 1   
     2     1    42 1   
     3     1    43 1   
     4     1    44 1   
     5     2     3 1   
     6     2     6 1   
     7     2    45 1   
     8     3     4 1   
     9     3    46 1   
    10     3    47 1   
    11     4     5 1   
    12     4     7 1   
    13     5     6 1   
    14     5    48 1   
    15     5    49 1   
    16     6    50 1   
    17     6    51 1   
    18     7     8 ar  
    19     7    12 ar  
    20     8     9 ar  
    21     8    52 1   
    22     9    10 ar  
    23     9    13 1   
    24    10    11 ar  
    25    10    15 1   
    26    11    12 ar  
    27    11    53 1   
    28    12    54 1   
    29    13    14 1   
    30    13    55 1   
    31    14    15 2   
    32    14    16 1   
    33    16    17 ar  
    34    16    21 ar  
    35    17    18 ar  
    36    17    56 1   
    37    18    19 ar  
    38    18    22 1   
    39    19    20 ar  
    40    19    24 1   
    41    20    21 ar  
    42    20    57 1   
    43    21    58 1   
    44    22    23 1   
    45    22    59 1   
    46    23    24 2   
    47    23    25 1   
    48    25    26 ar  
    49    25    30 ar  
    50    26    27 ar  
    51    26    60 1   
    52    27    28 ar  
    53    27    31 1   
    54    28    29 ar  
    55    28    33 1   
    56    29    30 ar  
    57    29    61 1   
    58    30    62 1   
    59    31    32 1   
    60    31    63 1   
    61    32    33 2   
    62    32    34 1   
    63    34    35 ar  
    64    34    39 ar  
    65    35    36 ar  
    66    35    64 1   
    67    36    37 ar  
    68    36    65 1   
    69    37    38 ar  
    70    37    40 1   
    71    38    39 ar  
    72    38    66 1   
    73    39    67 1   
    74    40    41 1   
    75    41    68 1   
    76    41    69 1   
    77    41    70 1   
@<TRIPOS>SUBSTRUCTURE
     1 MOL         1 TEMP              0 ****  ****    0 ROOT
