
                    3D
 Schrodinger Suite 2021-1.
 70 77  0  0  1  0            999 V2000
   12.5020   16.6410   82.2500 N   0  3  0  0  0  0
   11.3040   16.8190   83.1230 C   0  0  2  0  0  0
   10.0470   16.8740   82.2330 C   0  0  0  0  0  0
   10.2180   18.1530   81.6660 N   0  0  0  0  0  0
    9.8720   18.8540   82.8310 C   0  0  0  0  0  0
   11.1600   18.2610   83.6560 C   0  0  0  0  0  0
    9.6480   18.5510   80.5830 C   0  0  0  0  0  0
   10.3120   19.3570   79.6270 C   0  0  0  0  0  0
    9.4720   19.8870   78.6500 C   0  0  0  0  0  0
    8.1020   19.5390   78.6990 C   0  0  0  0  0  0
    7.5720   18.6930   79.6370 C   0  0  0  0  0  0
    8.3550   18.1680   80.5840 C   0  0  0  0  0  0
    9.5520   20.7440   77.5690 N   0  0  0  0  0  0
    8.2580   20.8930   77.0310 C   0  0  0  0  0  0
    7.4040   20.2000   77.7100 N   0  0  0  0  0  0
    7.8050   21.6030   75.9990 C   0  0  0  0  0  0
    8.6630   22.0060   75.0200 C   0  0  0  0  0  0
    8.1880   22.7630   73.9610 C   0  0  0  0  0  0
    6.8780   23.1440   73.8470 C   0  0  0  0  0  0
    6.0000   22.6900   74.8760 C   0  0  0  0  0  0
    6.4590   21.9090   75.9650 C   0  0  0  0  0  0
    8.8080   23.2470   72.9130 N   0  0  0  0  0  0
    7.9510   23.9530   72.1400 C   0  0  0  0  0  0
    6.7670   23.9490   72.6930 N   0  0  0  0  0  0
    8.3600   24.5390   70.9790 C   0  0  0  0  0  0
    9.5700   24.2240   70.3180 C   0  0  0  0  0  0
    9.8970   24.9260   69.1280 C   0  0  0  0  0  0
    9.0210   25.9250   68.6540 C   0  0  0  0  0  0
    7.8210   26.1810   69.3410 C   0  0  0  0  0  0
    7.4660   25.4920   70.5090 C   0  0  0  0  0  0
   10.9220   24.9120   68.2360 N   0  0  0  0  0  0
   10.6640   25.8850   67.2560 C   0  0  0  0  0  0
    9.5310   26.5210   67.5100 N   0  0  0  0  0  0
   11.4700   26.1400   66.1660 C   0  0  0  0  0  0
   12.5630   25.3110   66.0000 C   0  0  0  0  0  0
   13.3290   25.4200   64.8280 C   0  0  0  0  0  0
   12.9880   26.3720   63.8210 C   0  0  0  0  0  0
   11.9030   27.2810   64.0430 C   0  0  0  0  0  0
   11.1460   27.1470   65.2310 C   0  0  0  0  0  0
   13.7000   26.3200   62.6060 O   0  0  0  0  0  0
   13.7350   25.1080   61.7960 C   0  0  0  0  0  0
   13.3335   16.6034   82.8221 H   0  0  0  0  0  0
   12.4139   15.7809   81.7280 H   0  0  0  0  0  0
   12.5702   17.4181   81.6085 H   0  0  0  0  0  0
   11.2355   16.0668   83.9089 H   0  0  0  0  0  0
    9.1619   16.8833   82.8691 H   0  0  0  0  0  0
   10.1350   16.1231   81.4478 H   0  0  0  0  0  0
    8.9689   18.4033   83.2425 H   0  0  0  0  0  0
   10.0434   19.9154   82.6518 H   0  0  0  0  0  0
   12.0502   18.8327   83.3936 H   0  0  0  0  0  0
   10.9234   18.2301   84.7196 H   0  0  0  0  0  0
   11.3784   19.5123   79.6989 H   0  0  0  0  0  0
    6.5201   18.4496   79.6117 H   0  0  0  0  0  0
    7.9993   17.4694   81.3269 H   0  0  0  0  0  0
   10.4429   21.1374   77.3013 H   0  0  0  0  0  0
    9.7072   21.7352   75.0720 H   0  0  0  0  0  0
    4.9500   22.9403   74.8393 H   0  0  0  0  0  0
    5.8049   21.5554   76.7483 H   0  0  0  0  0  0
    9.7931   23.0670   72.7812 H   0  0  0  0  0  0
   10.2229   23.4635   70.7202 H   0  0  0  0  0  0
    7.1366   26.9304   68.9716 H   0  0  0  0  0  0
    6.5434   25.6751   71.0397 H   0  0  0  0  0  0
   11.6889   24.2662   68.3580 H   0  0  0  0  0  0
   12.8172   24.5927   66.7654 H   0  0  0  0  0  0
   14.1861   24.7795   64.6816 H   0  0  0  0  0  0
   11.6803   28.0447   63.3125 H   0  0  0  0  0  0
   10.3198   27.8158   65.4222 H   0  0  0  0  0  0
   14.3372   25.2834   60.9045 H   0  0  0  0  0  0
   14.1731   24.2955   62.3757 H   0  0  0  0  0  0
   12.7209   24.8378   61.5015 H   0  0  0  0  0  0
  1  2  1  0  0  0
  1 42  1  0  0  0
  1 43  1  0  0  0
  1 44  1  0  0  0
  2  3  1  0  0  0
  2  6  1  0  0  0
  2 45  1  0  0  0
  3  4  1  0  0  0
  3 46  1  0  0  0
  3 47  1  0  0  0
  4  5  1  0  0  0
  4  7  1  0  0  0
  5  6  1  0  0  0
  5 48  1  0  0  0
  5 49  1  0  0  0
  6 50  1  0  0  0
  6 51  1  0  0  0
  7  8  2  0  0  0
  7 12  1  0  0  0
  8  9  1  0  0  0
  8 52  1  0  0  0
  9 10  2  0  0  0
  9 13  1  0  0  0
 10 11  1  0  0  0
 10 15  1  0  0  0
 11 12  2  0  0  0
 11 53  1  0  0  0
 12 54  1  0  0  0
 13 14  1  0  0  0
 13 55  1  0  0  0
 14 15  2  0  0  0
 14 16  1  0  0  0
 16 17  2  0  0  0
 16 21  1  0  0  0
 17 18  1  0  0  0
 17 56  1  0  0  0
 18 19  2  0  0  0
 18 22  1  0  0  0
 19 20  1  0  0  0
 19 24  1  0  0  0
 20 21  2  0  0  0
 20 57  1  0  0  0
 21 58  1  0  0  0
 22 23  1  0  0  0
 22 59  1  0  0  0
 23 24  2  0  0  0
 23 25  1  0  0  0
 25 26  2  0  0  0
 25 30  1  0  0  0
 26 27  1  0  0  0
 26 60  1  0  0  0
 27 28  2  0  0  0
 27 31  1  0  0  0
 28 29  1  0  0  0
 28 33  1  0  0  0
 29 30  2  0  0  0
 29 61  1  0  0  0
 30 62  1  0  0  0
 31 32  1  0  0  0
 31 63  1  0  0  0
 32 33  2  0  0  0
 32 34  1  0  0  0
 34 35  1  0  0  0
 34 39  2  0  0  0
 35 36  2  0  0  0
 35 64  1  0  0  0
 36 37  1  0  0  0
 36 65  1  0  0  0
 37 38  2  0  0  0
 37 40  1  0  0  0
 38 39  1  0  0  0
 38 66  1  0  0  0
 39 67  1  0  0  0
 40 41  1  0  0  0
 41 68  1  0  0  0
 41 69  1  0  0  0
 41 70  1  0  0  0
M  CHG  1   1   1
M  END
> <s_pdb_PDB_format_version>
3.0

> <b_ppw_prepared>
1

> <s_ppw_prepared_with_version>
2021-1

> <s_ppw_het_states>
eJztmk1u4zAMha9ieB0EJinqZ65S9AZFd10VvfuIMp9ktIvBoJu0YBbhI6080Yr9wUr7vtP+Z3vqL7pt9Hzbnvi2HRbFY/KoHrPH4rF6bB7pgCAIWBI8CaYEV4ItwZdgTHBmODOcGc4MZ4Yzw5nhzHBmODOcBc4CZ5nLAGeBs8BZ4CxwFjgLnBOc03A2ZSvNa7Flyeyyl5LLHnXJ4lLX2F7qk7JLgnGvNZcWDx9iGhNakeiaYKZRZf/IGI92hlAcsQR9DFFwpCc8ra2visREwzDrHB2P6nFNMKlVzY3xlfNcMzmH8UxwCibsm2ckAutRxUKaYKyfJTJvA6u2SyJz0na6MS4YwSmYsGE8E5yCCdFrgjWwqqBRE4LeTAh6syThFKwq6M2qaXTdM7pzSv3o+07a72u6S0p9tp3TyFRz72oXObPWerO7nseKlGJZPbN0dJs9s2dSP27b69vLy/k+ruNARiAjkBHI+BHImFdcICOQEcj4LjJqEkOGQyJrqQsSWWoFJPR+lEwXSDT74IREFQ5IBCQCEgGJHwOJ2HwEJP4fEosLc1hAot/diVkumw9lW8qdz1s/V00LGaXkujYfjZQXJBqTBCQCEgGJgERAIiDxiyHxYNuNxQUMeyxI4KdK89mFPKv6BRK++WhUHwoS8xoLSAQk4kniu5DINP7W4c8OVZuuZ4dKWdZvEqw233x2yEcJLAQWAguBhcBCYOFXYSG2FP/AwrlRqKJy2USU0r5gAZuIQp/+++H54y/3n4eE

$$$$
