@<TRIPOS>MOLECULE
MOL
   51    52     1     0     0
SMALL
bcc


@<TRIPOS>ATOM
      1 C1           8.0150    20.2560    12.8900 ca         1 MOL       0.208100
      2 C2           9.3140    19.9680    12.6590 ca         1 MOL      -0.183500
      3 C3          10.0450    19.3400    13.6430 ca         1 MOL      -0.038000
      4 C4           9.4700    18.9160    14.8390 ca         1 MOL      -0.309900
      5 C5           8.1440    19.1960    15.0240 ca         1 MOL      -0.038000
      6 C6           7.4160    19.8280    14.0860 ca         1 MOL      -0.183500
      7 C7           8.3640    21.6360    11.1590 c3         1 MOL       0.126400
      8 C8           7.3870    22.1360    10.1090 c3         1 MOL      -0.088400
      9 C9          10.1770    18.2800    15.8040 ce         1 MOL       0.529400
     10 C10          8.4610    22.3800     9.0910 c3         1 MOL      -0.075400
     11 C11          9.5290    24.6440     5.0280 ca         1 MOL       0.208100
     12 C12         10.5570    23.8000     4.8830 ca         1 MOL      -0.183500
     13 C13         11.4120    23.9920     3.8320 ca         1 MOL      -0.038000
     14 C14         11.2520    25.0360     2.9270 ca         1 MOL      -0.309900
     15 C15         10.2230    25.8800     3.0920 ca         1 MOL      -0.038000
     16 C16          9.3460    25.6880     4.1360 ca         1 MOL      -0.183500
     17 C17          9.1920    23.5400     6.9970 c3         1 MOL       0.126400
     18 C18          8.0930    23.4040     8.0610 c3         1 MOL      -0.088400
     19 C19         12.1170    25.2320     1.9090 ce         1 MOL       0.529400
     20 O1           7.3620    20.9280    11.9920 os         1 MOL      -0.304900
     21 O2           8.6830    24.4680     5.9930 os         1 MOL      -0.304900
     22 N1          11.5150    18.1680    15.6650 nv         1 MOL      -0.472100
     23 N2           9.5770    17.8480    16.9670 nv         1 MOL      -0.456200
     24 N3          13.2280    24.4640     1.8300 nv         1 MOL      -0.472100
     25 N4          11.8930    26.2240     0.9710 nv         1 MOL      -0.456200
     26 H1           9.7650    20.2300    11.7130 ha         1 MOL       0.174000
     27 H2          11.1010    19.1620    13.5010 ha         1 MOL       0.151000
     28 H3           7.6540    18.9080    15.9430 ha         1 MOL       0.151000
     29 H4           6.3640    20.0060    14.2570 ha         1 MOL       0.174000
     30 H5           8.7420    22.4910    11.7190 h1         1 MOL       0.052200
     31 H6           9.0210    20.8970    10.7000 h1         1 MOL       0.052200
     32 H7           6.9990    23.1010    10.4350 hc         1 MOL       0.070700
     33 H8           6.7830    21.2930     9.7740 hc         1 MOL       0.070700
     34 H9           8.7090    21.4420     8.5950 hc         1 MOL       0.047700
     35 H10          9.3760    22.6890     9.5970 hc         1 MOL       0.047700
     36 H11         10.6960    22.9920     5.5860 ha         1 MOL       0.174000
     37 H12         12.2450    23.3210     3.6840 ha         1 MOL       0.151000
     38 H13         10.0860    26.7050     2.4080 ha         1 MOL       0.151000
     39 H14          8.5090    26.3600     4.2560 ha         1 MOL       0.174000
     40 H15          9.3710    22.5690     6.5350 h1         1 MOL       0.052200
     41 H16         10.0890    23.9570     7.4540 h1         1 MOL       0.052200
     42 H17          7.9370    24.3670     8.5470 hc         1 MOL       0.070700
     43 H18          7.1570    23.1160     7.5820 hc         1 MOL       0.070700
     44 H19         12.0590    17.6970    16.3740 hn         1 MOL       0.326200
     45 H20         11.9720    18.5550    14.8520 hn         1 MOL       0.326200
     46 H21         10.1240    17.3760    17.6720 hn         1 MOL       0.326200
     47 H22          8.5900    18.0030    17.1140 hn         1 MOL       0.326200
     48 H23         13.8830    24.6000     1.0740 hn         1 MOL       0.326200
     49 H24         13.4020    23.7550     2.5270 hn         1 MOL       0.326200
     50 H25         12.5480    26.3600     0.2140 hn         1 MOL       0.326200
     51 H26         11.0750    26.8120     1.0430 hn         1 MOL       0.326200
@<TRIPOS>BOND
     1     1     2 ar  
     2     1     6 ar  
     3     1    20 1   
     4     2     3 ar  
     5     2    26 1   
     6     3     4 ar  
     7     3    27 1   
     8     4     5 ar  
     9     4     9 1   
    10     5     6 ar  
    11     5    28 1   
    12     6    29 1   
    13     7     8 1   
    14     7    20 1   
    15     7    30 1   
    16     7    31 1   
    17     8    10 1   
    18     8    32 1   
    19     8    33 1   
    20     9    22 2   
    21     9    23 1   
    22    10    18 1   
    23    10    34 1   
    24    10    35 1   
    25    11    12 ar  
    26    11    16 ar  
    27    11    21 1   
    28    12    13 ar  
    29    12    36 1   
    30    13    14 ar  
    31    13    37 1   
    32    14    15 ar  
    33    14    19 1   
    34    15    16 ar  
    35    15    38 1   
    36    16    39 1   
    37    17    18 1   
    38    17    21 1   
    39    17    40 1   
    40    17    41 1   
    41    18    42 1   
    42    18    43 1   
    43    19    24 2   
    44    19    25 1   
    45    22    44 1   
    46    22    45 1   
    47    23    46 1   
    48    23    47 1   
    49    24    48 1   
    50    24    49 1   
    51    25    50 1   
    52    25    51 1   
@<TRIPOS>SUBSTRUCTURE
     1 MOL         1 TEMP              0 ****  ****    0 ROOT
