
                    3D
 Schrodinger Suite 2021-1.
 51 52  0  0  1  0            999 V2000
    8.0150   20.2560   12.8900 C   0  0  0  0  0  0
    9.3140   19.9680   12.6590 C   0  0  0  0  0  0
   10.0450   19.3400   13.6430 C   0  0  0  0  0  0
    9.4700   18.9160   14.8390 C   0  0  0  0  0  0
    8.1440   19.1960   15.0240 C   0  0  0  0  0  0
    7.4160   19.8280   14.0860 C   0  0  0  0  0  0
    8.3640   21.6360   11.1590 C   0  0  0  0  0  0
    7.3870   22.1360   10.1090 C   0  0  0  0  0  0
   10.1770   18.2800   15.8040 C   0  0  0  0  0  0
    8.4610   22.3800    9.0910 C   0  0  0  0  0  0
    9.5290   24.6440    5.0280 C   0  0  0  0  0  0
   10.5570   23.8000    4.8830 C   0  0  0  0  0  0
   11.4120   23.9920    3.8320 C   0  0  0  0  0  0
   11.2520   25.0360    2.9270 C   0  0  0  0  0  0
   10.2230   25.8800    3.0920 C   0  0  0  0  0  0
    9.3460   25.6880    4.1360 C   0  0  0  0  0  0
    9.1920   23.5400    6.9970 C   0  0  0  0  0  0
    8.0930   23.4040    8.0610 C   0  0  0  0  0  0
   12.1170   25.2320    1.9090 C   0  0  0  0  0  0
    7.3620   20.9280   11.9920 O   0  0  0  0  0  0
    8.6830   24.4680    5.9930 O   0  0  0  0  0  0
   11.5150   18.1680   15.6650 N   0  3  0  0  0  0
    9.5770   17.8480   16.9670 N   0  0  0  0  0  0
   13.2280   24.4640    1.8300 N   0  3  0  0  0  0
   11.8930   26.2240    0.9710 N   0  0  0  0  0  0
    9.7653   20.2299   11.7134 H   0  0  0  0  0  0
   11.1006   19.1615   13.5008 H   0  0  0  0  0  0
    7.6544   18.9082   15.9426 H   0  0  0  0  0  0
    6.3645   20.0057   14.2571 H   0  0  0  0  0  0
    8.7418   22.4912   11.7193 H   0  0  0  0  0  0
    9.0211   20.8971   10.7003 H   0  0  0  0  0  0
    6.9988   23.1010   10.4348 H   0  0  0  0  0  0
    6.7834   21.2925    9.7740 H   0  0  0  0  0  0
    8.7093   21.4415    8.5953 H   0  0  0  0  0  0
    9.3756   22.6887    9.5972 H   0  0  0  0  0  0
   10.6956   22.9920    5.5860 H   0  0  0  0  0  0
   12.2449   23.3206    3.6839 H   0  0  0  0  0  0
   10.0859   26.7046    2.4081 H   0  0  0  0  0  0
    8.5094   26.3604    4.2560 H   0  0  0  0  0  0
    9.3713   22.5691    6.5352 H   0  0  0  0  0  0
   10.0893   23.9572    7.4542 H   0  0  0  0  0  0
    7.9369   24.3673    8.5466 H   0  0  0  0  0  0
    7.1573   23.1164    7.5815 H   0  0  0  0  0  0
   12.0587   17.6972   16.3741 H   0  0  0  0  0  0
   11.9724   18.5550   14.8519 H   0  0  0  0  0  0
   10.1244   17.3760   17.6725 H   0  0  0  0  0  0
    8.5899   18.0034   17.1139 H   0  0  0  0  0  0
   13.8833   24.6002    1.0736 H   0  0  0  0  0  0
   13.4021   23.7545    2.5274 H   0  0  0  0  0  0
   12.5477   26.3605    0.2142 H   0  0  0  0  0  0
   11.0748   26.8117    1.0431 H   0  0  0  0  0  0
  1  2  2  0  0  0
  1  6  1  0  0  0
  1 20  1  0  0  0
  2  3  1  0  0  0
  2 26  1  0  0  0
  3  4  2  0  0  0
  3 27  1  0  0  0
  4  5  1  0  0  0
  4  9  1  0  0  0
  5  6  2  0  0  0
  5 28  1  0  0  0
  6 29  1  0  0  0
  7  8  1  0  0  0
  7 20  1  0  0  0
  7 30  1  0  0  0
  7 31  1  0  0  0
  8 10  1  0  0  0
  8 32  1  0  0  0
  8 33  1  0  0  0
  9 22  2  0  0  0
  9 23  1  0  0  0
 10 18  1  0  0  0
 10 34  1  0  0  0
 10 35  1  0  0  0
 11 12  2  0  0  0
 11 16  1  0  0  0
 11 21  1  0  0  0
 12 13  1  0  0  0
 12 36  1  0  0  0
 13 14  2  0  0  0
 13 37  1  0  0  0
 14 15  1  0  0  0
 14 19  1  0  0  0
 15 16  2  0  0  0
 15 38  1  0  0  0
 16 39  1  0  0  0
 17 18  1  0  0  0
 17 21  1  0  0  0
 17 40  1  0  0  0
 17 41  1  0  0  0
 18 42  1  0  0  0
 18 43  1  0  0  0
 19 24  2  0  0  0
 19 25  1  0  0  0
 22 44  1  0  0  0
 22 45  1  0  0  0
 23 46  1  0  0  0
 23 47  1  0  0  0
 24 48  1  0  0  0
 24 49  1  0  0  0
 25 50  1  0  0  0
 25 51  1  0  0  0
M  CHG  2  22   1  24   1
M  END
> <s_pdb_PDB_format_version>
3.0

> <b_ppw_prepared>
1

> <s_ppw_prepared_with_version>
2021-1

> <s_ppw_het_states>
eJxNkEsSgzAMQ6+SYZ12ovDvVRhuwHTXFcPda7tSCgskG+dF+OzQvdJmD3Iqe05bpfbUgTpSJ+pMXagrFUVGRAgJMSEoRIWwEBcCQ+Qqcm1ZjYwwItdBnSC78z+zuRqsnCYOeLdoOKee1nTgsOnIrtmVdgxE5QoWducbzXvydqrqcve6JgZ02DeFFtGL6fbF/xbaIxrAjZK6gbJGobTRVV7f7f/S+Y72bI3mRdCsepSnRT2vnN6f4/i99/36AqF3d9c=

$$$$
