@<TRIPOS>MOLECULE
MOL
   45    46     1     0     0
SMALL
bcc


@<TRIPOS>ATOM
      1 C1          10.7810    26.2170    68.7050 ca         1 MOL       0.202100
      2 C2          11.7980    25.2610    68.4870 ca         1 MOL      -0.179750
      3 C3          12.5580    25.3330    67.3220 ca         1 MOL      -0.039000
      4 C4          12.3270    26.3130    66.3440 ca         1 MOL      -0.303900
      5 C5          11.3170    27.2680    66.5760 ca         1 MOL      -0.039000
      6 C6          10.5640    27.2110    67.7470 ca         1 MOL      -0.179750
      7 C7          13.0170    26.2770    65.1010 ce         1 MOL       0.527400
      8 N1          13.7310    25.1900    64.7150 nv         1 MOL      -0.470100
      9 N2          12.8970    27.3360    64.2630 nv         1 MOL      -0.454200
     10 C8           7.7600    23.0980    74.4710 ca         1 MOL       0.202100
     11 C9           6.5870    22.7810    75.2100 ca         1 MOL      -0.179750
     12 C10          6.6360    22.0170    76.3950 ca         1 MOL      -0.039000
     13 C11          7.9430    21.5500    76.8210 ca         1 MOL      -0.303900
     14 C12          9.0620    21.8550    76.0680 ca         1 MOL      -0.039000
     15 C13          8.9970    22.6090    74.9290 ca         1 MOL      -0.179750
     16 C14          8.1820    20.7820    77.9810 ce         1 MOL       0.527400
     17 N3           9.3660    20.8690    78.6230 nv         1 MOL      -0.470100
     18 N4           7.1370    20.0560    78.4890 nv         1 MOL      -0.454200
     19 C15          9.8860    24.9450    70.4840 c3         1 MOL       0.129400
     20 O1           9.9310    26.1840    69.7600 os         1 MOL      -0.303900
     21 C16          8.7200    25.0130    71.4670 c3         1 MOL      -0.098400
     22 C17          8.9580    24.0700    72.6360 c3         1 MOL       0.129400
     23 O2           7.6910    23.8670    73.3260 os         1 MOL      -0.303900
     24 H1          11.9780    24.4870    69.2190 ha         1 MOL       0.174000
     25 H2          13.3520    24.6220    67.1500 ha         1 MOL       0.153500
     26 H3          11.1280    28.0420    65.8470 ha         1 MOL       0.153500
     27 H4           9.7990    27.9570    67.9060 ha         1 MOL       0.174000
     28 H5          14.2120    25.1910    63.8270 hn         1 MOL       0.327200
     29 H6          13.7820    24.3800    65.3160 hn         1 MOL       0.327200
     30 H7          13.3770    27.3340    63.3750 hn         1 MOL       0.327200
     31 H8          12.3270    28.1270    64.5270 hn         1 MOL       0.327200
     32 H9           5.6230    23.1280    74.8680 ha         1 MOL       0.174000
     33 H10          5.7270    21.8050    76.9390 ha         1 MOL       0.153500
     34 H11         10.0330    21.4940    76.3730 ha         1 MOL       0.153500
     35 H12          9.9010    22.8290    74.3800 ha         1 MOL       0.174000
     36 H13          9.5320    20.3170    79.4530 hn         1 MOL       0.327200
     37 H14         10.0860    21.4860    78.2740 hn         1 MOL       0.327200
     38 H15          7.2680    19.4940    79.3180 hn         1 MOL       0.327200
     39 H16          6.2350    20.0830    78.0350 hn         1 MOL       0.327200
     40 H17         10.8170    24.8120    71.0340 h1         1 MOL       0.053700
     41 H18          9.7250    24.1230    69.7870 h1         1 MOL       0.053700
     42 H19          7.7980    24.7330    70.9570 hc         1 MOL       0.089700
     43 H20          8.6170    26.0330    71.8380 hc         1 MOL       0.089700
     44 H21          9.6770    24.5170    73.3220 h1         1 MOL       0.053700
     45 H22          9.3250    23.1140    72.2620 h1         1 MOL       0.053700
@<TRIPOS>BOND
     1     1     2 ar  
     2     1     6 ar  
     3     1    20 1   
     4     2     3 ar  
     5     2    24 1   
     6     3     4 ar  
     7     3    25 1   
     8     4     5 ar  
     9     4     7 1   
    10     5     6 ar  
    11     5    26 1   
    12     6    27 1   
    13     7     8 2   
    14     7     9 1   
    15     8    28 1   
    16     8    29 1   
    17     9    30 1   
    18     9    31 1   
    19    10    11 ar  
    20    10    15 ar  
    21    10    23 1   
    22    11    12 ar  
    23    11    32 1   
    24    12    13 ar  
    25    12    33 1   
    26    13    14 ar  
    27    13    16 1   
    28    14    15 ar  
    29    14    34 1   
    30    15    35 1   
    31    16    17 2   
    32    16    18 1   
    33    17    36 1   
    34    17    37 1   
    35    18    38 1   
    36    18    39 1   
    37    19    20 1   
    38    19    21 1   
    39    19    40 1   
    40    19    41 1   
    41    21    22 1   
    42    21    42 1   
    43    21    43 1   
    44    22    23 1   
    45    22    44 1   
    46    22    45 1   
@<TRIPOS>SUBSTRUCTURE
     1 MOL         1 TEMP              0 ****  ****    0 ROOT
