
                    3D
 Schrodinger Suite 2021-1.
 45 46  0  0  1  0            999 V2000
   10.7810   26.2170   68.7050 C   0  0  0  0  0  0
   11.7980   25.2610   68.4870 C   0  0  0  0  0  0
   12.5580   25.3330   67.3220 C   0  0  0  0  0  0
   12.3270   26.3130   66.3440 C   0  0  0  0  0  0
   11.3170   27.2680   66.5760 C   0  0  0  0  0  0
   10.5640   27.2110   67.7470 C   0  0  0  0  0  0
   13.0170   26.2770   65.1010 C   0  0  0  0  0  0
   13.7310   25.1900   64.7150 N   0  3  0  0  0  0
   12.8970   27.3360   64.2630 N   0  0  0  0  0  0
    7.7600   23.0980   74.4710 C   0  0  0  0  0  0
    6.5870   22.7810   75.2100 C   0  0  0  0  0  0
    6.6360   22.0170   76.3950 C   0  0  0  0  0  0
    7.9430   21.5500   76.8210 C   0  0  0  0  0  0
    9.0620   21.8550   76.0680 C   0  0  0  0  0  0
    8.9970   22.6090   74.9290 C   0  0  0  0  0  0
    8.1820   20.7820   77.9810 C   0  0  0  0  0  0
    9.3660   20.8690   78.6230 N   0  3  0  0  0  0
    7.1370   20.0560   78.4890 N   0  0  0  0  0  0
    9.8860   24.9450   70.4840 C   0  0  0  0  0  0
    9.9310   26.1840   69.7600 O   0  0  0  0  0  0
    8.7200   25.0130   71.4670 C   0  0  0  0  0  0
    8.9580   24.0700   72.6360 C   0  0  0  0  0  0
    7.6910   23.8670   73.3260 O   0  0  0  0  0  0
   11.9778   24.4874   69.2189 H   0  0  0  0  0  0
   13.3522   24.6215   67.1505 H   0  0  0  0  0  0
   11.1279   28.0420   65.8469 H   0  0  0  0  0  0
    9.7991   27.9567   67.9062 H   0  0  0  0  0  0
   14.2117   25.1909   63.8267 H   0  0  0  0  0  0
   13.7819   24.3798   65.3159 H   0  0  0  0  0  0
   13.3774   27.3339   63.3746 H   0  0  0  0  0  0
   12.3272   28.1270   64.5272 H   0  0  0  0  0  0
    5.6230   23.1275   74.8678 H   0  0  0  0  0  0
    5.7273   21.8052   76.9389 H   0  0  0  0  0  0
   10.0331   21.4941   76.3733 H   0  0  0  0  0  0
    9.9010   22.8286   74.3805 H   0  0  0  0  0  0
    9.5323   20.3175   79.4526 H   0  0  0  0  0  0
   10.0857   21.4856   78.2738 H   0  0  0  0  0  0
    7.2683   19.4939   79.3178 H   0  0  0  0  0  0
    6.2353   20.0829   78.0347 H   0  0  0  0  0  0
   10.8174   24.8123   71.0344 H   0  0  0  0  0  0
    9.7253   24.1228   69.7867 H   0  0  0  0  0  0
    7.7983   24.7333   70.9568 H   0  0  0  0  0  0
    8.6172   26.0327   71.8382 H   0  0  0  0  0  0
    9.6774   24.5169   73.3222 H   0  0  0  0  0  0
    9.3250   23.1141   72.2623 H   0  0  0  0  0  0
  1  2  2  0  0  0
  1  6  1  0  0  0
  1 20  1  0  0  0
  2  3  1  0  0  0
  2 24  1  0  0  0
  3  4  2  0  0  0
  3 25  1  0  0  0
  4  5  1  0  0  0
  4  7  1  0  0  0
  5  6  2  0  0  0
  5 26  1  0  0  0
  6 27  1  0  0  0
  7  8  2  0  0  0
  7  9  1  0  0  0
  8 28  1  0  0  0
  8 29  1  0  0  0
  9 30  1  0  0  0
  9 31  1  0  0  0
 10 11  2  0  0  0
 10 15  1  0  0  0
 10 23  1  0  0  0
 11 12  1  0  0  0
 11 32  1  0  0  0
 12 13  2  0  0  0
 12 33  1  0  0  0
 13 14  1  0  0  0
 13 16  1  0  0  0
 14 15  2  0  0  0
 14 34  1  0  0  0
 15 35  1  0  0  0
 16 17  2  0  0  0
 16 18  1  0  0  0
 17 36  1  0  0  0
 17 37  1  0  0  0
 18 38  1  0  0  0
 18 39  1  0  0  0
 19 20  1  0  0  0
 19 21  1  0  0  0
 19 40  1  0  0  0
 19 41  1  0  0  0
 21 22  1  0  0  0
 21 42  1  0  0  0
 21 43  1  0  0  0
 22 23  1  0  0  0
 22 44  1  0  0  0
 22 45  1  0  0  0
M  CHG  2   8   1  17   1
M  END
> <s_pdb_PDB_format_version>
3.0

> <b_ppw_prepared>
1

> <s_ppw_prepared_with_version>
2021-1

> <s_ppw_het_states>
eJxNkEESgyAMRa/CuKYdfhTFXsXxBk53XTnevQnkoy78SYCX5J8Dhk/Y9EMMaY9hE9fRdXLNrrPr4lpigOnqORIDEkEkyAShIBXEYnEeCiskC8nSZyVZKtki20OrUl/GMJOmpeSxHo8eqk5+WTV7VUNOkStCfOFyhyvBRgUbWpIfJ8JGdsV8AA0xL4SmmB/oSZ95ajShQebNndB486fvVhNwUZuLTS1o42j2Sm99cV4xfH/H0f77fv0B1XxvIw==

$$$$
