Structure182
                    3D
 Structure written by MMmdl.
 64 68  0  0  1  0            999 V2000
   -8.4490   -7.0880   20.3190 C   0  0  0  0  0  0
   -7.6950   -8.2770   20.3280 C   0  0  0  0  0  0
   -7.8140   -5.8580   20.5740 C   0  0  0  0  0  0
   -4.3790   -4.5890   21.2480 C   0  0  0  0  0  0
   -3.6920   -5.8250   21.2790 C   0  0  0  0  0  0
   -1.6040   -4.6610   21.7440 C   0  0  0  0  0  0
   -1.6000   -2.2390   22.0390 C   0  0  0  0  0  0
   -1.6590    0.1950   22.2830 C   0  0  0  0  0  0
   -3.7430    1.3860   21.8860 C   0  0  0  0  0  0
   -4.3830    0.1760   21.5850 C   0  0  0  0  0  0
   -6.3240   -8.2380   20.6240 C   0  0  0  0  0  0
   -2.3060   -5.8540   21.5090 C   0  0  0  0  0  0
   -2.3830    1.4010   22.2380 C   0  0  0  0  0  0
   -4.3560   -6.9790   21.0770 N   0  0  0  0  0  0
   -5.7640   -4.5900   20.9900 C   0  0  0  0  0  0
   -6.4270   -5.8140   20.8080 C   0  0  0  0  0  0
  -10.2030   -6.9620   18.6310 N   0  3  0  0  0  0
   -5.6820   -7.0100   20.8470 C   0  0  0  0  0  0
  -11.3820   -6.2370   18.1840 C   0  0  0  0  0  0
  -11.4410   -6.2030   16.6530 C   0  0  0  0  0  0
   -1.5670    2.8040   24.0320 N   0  3  0  0  0  0
  -12.6520   -5.3940   16.1820 C   0  0  0  0  0  0
   -1.7120    2.7110   22.5890 C   0  0  0  0  0  0
   -2.6810    3.1960   24.8810 C   0  0  0  0  0  0
   -3.4120    1.9700   25.4440 C   0  0  0  0  0  0
   -2.4770    1.0390   26.2240 C   0  0  0  0  0  0
   -9.9400   -7.1340   20.0500 C   0  0  0  0  0  0
   -2.2870   -3.4320   21.7500 C   0  0  0  0  0  0
   -3.6710   -3.3870   21.4670 C   0  0  0  0  0  0
   -2.3040   -1.0230   21.9990 C   0  0  0  0  0  0
   -3.6740   -1.0330   21.6610 C   0  0  0  0  0  0
   -4.3050   -2.1960   21.4160 N   0  0  0  0  0  0
   -8.1718   -9.2205   20.1069 H   0  0  0  0  0  0
   -8.3913   -4.9454   20.5904 H   0  0  0  0  0  0
   -0.5388   -4.6870   21.9203 H   0  0  0  0  0  0
   -0.5491   -2.2674   22.2864 H   0  0  0  0  0  0
   -0.6090    0.2046   22.5354 H   0  0  0  0  0  0
   -4.2955    2.3132   21.8480 H   0  0  0  0  0  0
   -5.4231    0.1730   21.2941 H   0  0  0  0  0  0
   -5.7576   -9.1558   20.6811 H   0  0  0  0  0  0
   -1.7776   -6.7959   21.5053 H   0  0  0  0  0  0
   -6.3036   -3.6561   20.9342 H   0  0  0  0  0  0
   -9.3862   -6.5605   18.1930 H   0  0  0  0  0  0
  -10.1857   -7.8670   18.1828 H   0  0  0  0  0  0
  -11.3489   -5.2177   18.5687 H   0  0  0  0  0  0
  -12.2766   -6.7249   18.5710 H   0  0  0  0  0  0
  -11.5131   -7.2209   16.2698 H   0  0  0  0  0  0
  -10.5287   -5.7503   16.2645 H   0  0  0  0  0  0
   -0.7742    3.3933   24.2423 H   0  0  0  0  0  0
   -1.1841    1.9356   24.3775 H   0  0  0  0  0  0
  -12.6788   -5.3800   15.0924 H   0  0  0  0  0  0
  -13.5654   -5.8520   16.5615 H   0  0  0  0  0  0
  -12.5754   -4.3731   16.5562 H   0  0  0  0  0  0
   -2.3235    3.5394   22.2314 H   0  0  0  0  0  0
   -0.7280    2.7515   22.1219 H   0  0  0  0  0  0
   -3.3801    3.8025   24.3052 H   0  0  0  0  0  0
   -2.3121    3.8080   25.7040 H   0  0  0  0  0  0
   -3.8747    1.4170   24.6266 H   0  0  0  0  0  0
   -4.2221    2.2985   26.0951 H   0  0  0  0  0  0
   -3.0432    0.1874   26.6012 H   0  0  0  0  0  0
   -1.6841    0.6845   25.5654 H   0  0  0  0  0  0
   -2.0378    1.5821   27.0608 H   0  0  0  0  0  0
  -10.4345   -6.3401   20.6097 H   0  0  0  0  0  0
  -10.3389   -8.0934   20.3794 H   0  0  0  0  0  0
  1  2  1  0  0  0
  1  3  2  0  0  0
  1 27  1  0  0  0
  2 11  2  0  0  0
  2 33  1  0  0  0
  3 16  1  0  0  0
  3 34  1  0  0  0
  4  5  2  0  0  0
  4 15  1  0  0  0
  4 29  1  0  0  0
  5 12  1  0  0  0
  5 14  1  0  0  0
  6 12  2  0  0  0
  6 28  1  0  0  0
  6 35  1  0  0  0
  7 28  2  0  0  0
  7 30  1  0  0  0
  7 36  1  0  0  0
  8 13  1  0  0  0
  8 30  2  0  0  0
  8 37  1  0  0  0
  9 10  1  0  0  0
  9 13  2  0  0  0
  9 38  1  0  0  0
 10 31  2  0  0  0
 10 39  1  0  0  0
 11 18  1  0  0  0
 11 40  1  0  0  0
 12 41  1  0  0  0
 13 23  1  0  0  0
 14 18  2  0  0  0
 15 16  2  0  0  0
 15 42  1  0  0  0
 16 18  1  0  0  0
 17 19  1  0  0  0
 17 27  1  0  0  0
 17 43  1  0  0  0
 17 44  1  0  0  0
 19 20  1  0  0  0
 19 45  1  0  0  0
 19 46  1  0  0  0
 20 22  1  0  0  0
 20 47  1  0  0  0
 20 48  1  0  0  0
 21 23  1  0  0  0
 21 24  1  0  0  0
 21 49  1  0  0  0
 21 50  1  0  0  0
 22 51  1  0  0  0
 22 52  1  0  0  0
 22 53  1  0  0  0
 23 54  1  0  0  0
 23 55  1  0  0  0
 24 25  1  0  0  0
 24 56  1  0  0  0
 24 57  1  0  0  0
 25 26  1  0  0  0
 25 58  1  0  0  0
 25 59  1  0  0  0
 26 60  1  0  0  0
 26 61  1  0  0  0
 26 62  1  0  0  0
 27 63  1  0  0  0
 27 64  1  0  0  0
 28 29  1  0  0  0
 29 32  2  0  0  0
 30 31  1  0  0  0
 31 32  1  0  0  0
M  CHG  2  17   1  21   1
M  END
> <i_m_stars>
0

> <s_m_entry_id>
182

> <s_m_entry_name>
Structure182

> <s_pdb_PDB_TITLE>
G-QUADRUPLEX RECOGNITION BY QUINACRIDINES: A SAR, NMR AND BIOLOGICAL STUDY

> <s_pdb_PDB_ID>
2JWQ

> <s_pdb_PDB_CLASSIFICATION>
DNA

> <s_pdb_PDB_DEPOSITION_DATE>
23-OCT-07

> <s_pdb_PDB_format_version>
3.30

> <s_pdb_PDB_EXPDTA>
SOLUTION NMR

> <r_pdb_PDB_EXPDTA_TEMPERATURE>
318

> <r_pdb_PDB_EXPDTA_PH>
7

> <s_pdb_PDB_REMARK_350_Biomolecule_1_Chains>
A, B, C, D

> <s_pdb_PDB_REMARK_350_Biomolecule_1_Transformation_1>
1.000000 0.000000 0.000000   0.000000;0.000000 1.000000 0.000000   0.000000;0.000000 0.000000 1.000000   0.000000

> <s_m_Source_Path>
G:\02ReData201904034\NLData\PDBs\2JWQ

> <s_m_Source_File>
2JWQ.pdb

> <i_m_Source_File_Index>
1

> <s_ppw_entry_id_backup>
180

> <b_ppw_prepared>
1

> <s_ppw_prepared_with_version>
2018-3

> <b_ppw_assigned_bond_orders>
1

> <b_ppw_added_hydrogens>
1

> <b_ppw_treated_metals>
1

> <b_ppw_created_disulfur>
1

> <b_ppw_deleted_far_waters>
1

$$$$
