Structure183
                    3D
 Structure written by MMmdl.
 64 68  0  0  1  0            999 V2000
   -9.4830   -0.7280    9.4410 C   0  0  0  0  0  0
   -9.4610   -2.0300    8.9020 C   0  0  0  0  0  0
   -8.2810   -0.0180    9.5540 C   0  0  0  0  0  0
   -4.6540   -0.5710    9.1790 C   0  0  0  0  0  0
   -4.6620   -1.9370    8.8230 C   0  0  0  0  0  0
   -2.2240   -1.9140    8.7400 C   0  0  0  0  0  0
   -1.0120    0.1560    9.2460 C   0  0  0  0  0  0
    0.1120    2.3120    9.5520 C   0  0  0  0  0  0
   -1.2210    4.3190    9.9030 C   0  0  0  0  0  0
   -2.3960    3.5570    9.8220 C   0  0  0  0  0  0
   -8.2320   -2.6690    8.6420 C   0  0  0  0  0  0
   -3.4450   -2.6000    8.5910 C   0  0  0  0  0  0
    0.0350    3.7040    9.7500 C   0  0  0  0  0  0
   -5.8340   -2.5950    8.6740 N   0  0  0  0  0  0
   -5.8730    0.0820    9.4120 C   0  0  0  0  0  0
   -7.0610   -0.6370    9.2680 C   0  0  0  0  0  0
  -10.9000    1.2670    9.4610 N   0  3  0  0  0  0
   -7.0230   -1.9820    8.8580 C   0  0  0  0  0  0
  -11.8650    2.1830   10.0430 C   0  0  0  0  0  0
  -11.4580    3.6360    9.7690 C   0  0  0  0  0  0
    1.5700    5.2020    8.6010 N   0  3  0  0  0  0
  -11.4690    3.9730    8.2730 C   0  0  0  0  0  0
    1.3020    4.5290    9.8530 C   0  0  0  0  0  0
    2.6780    6.1340    8.4680 C   0  0  0  0  0  0
    3.7090    5.5810    7.4790 C   0  0  0  0  0  0
    4.5330    4.4350    8.0700 C   0  0  0  0  0  0
  -10.7730   -0.0970    9.9480 C   0  0  0  0  0  0
   -2.2190   -0.5510    9.0890 C   0  0  0  0  0  0
   -3.4390    0.1310    9.2720 C   0  0  0  0  0  0
   -1.0630    1.5460    9.4630 C   0  0  0  0  0  0
   -2.3170    2.1750    9.5970 C   0  0  0  0  0  0
   -3.4440    1.4550    9.5150 N   0  0  0  0  0  0
  -10.3878   -2.5411    8.6869 H   0  0  0  0  0  0
   -8.2920    1.0164    9.8643 H   0  0  0  0  0  0
   -1.2901   -2.4342    8.5863 H   0  0  0  0  0  0
   -0.0690   -0.3684    9.1991 H   0  0  0  0  0  0
    1.0753    1.8310    9.4682 H   0  0  0  0  0  0
   -1.2783    5.3823   10.0835 H   0  0  0  0  0  0
   -3.3582    4.0348    9.9328 H   0  0  0  0  0  0
   -8.2184   -3.6854    8.2772 H   0  0  0  0  0  0
   -3.4437   -3.6393    8.2973 H   0  0  0  0  0  0
   -5.8817    1.1235    9.6975 H   0  0  0  0  0  0
   -9.9891    1.7031    9.4710 H   0  0  0  0  0  0
  -11.0336    1.2449    8.4601 H   0  0  0  0  0  0
  -11.9190    2.0179   11.1191 H   0  0  0  0  0  0
  -12.8490    1.9946    9.6137 H   0  0  0  0  0  0
  -10.4620    3.8158   10.1737 H   0  0  0  0  0  0
  -12.1351    4.3077   10.2968 H   0  0  0  0  0  0
    0.7237    5.6549    8.2868 H   0  0  0  0  0  0
    1.6354    4.5111    7.8672 H   0  0  0  0  0  0
  -11.1737    5.0127    8.1321 H   0  0  0  0  0  0
  -10.7690    3.3227    7.7484 H   0  0  0  0  0  0
  -12.4721    3.8234    7.8737 H   0  0  0  0  0  0
    2.1400    3.8778   10.1017 H   0  0  0  0  0  0
    1.1902    5.2685   10.6460 H   0  0  0  0  0  0
    3.1490    6.2792    9.4402 H   0  0  0  0  0  0
    2.3051    7.0921    8.1059 H   0  0  0  0  0  0
    4.3769    6.3833    7.1654 H   0  0  0  0  0  0
    3.1992    5.2346    6.5800 H   0  0  0  0  0  0
    5.2480    4.0804    7.3276 H   0  0  0  0  0  0
    5.0695    4.7889    8.9503 H   0  0  0  0  0  0
    3.8693    3.6182    8.3537 H   0  0  0  0  0  0
  -10.7720   -0.0946   11.0380 H   0  0  0  0  0  0
  -11.6241   -0.6855    9.6053 H   0  0  0  0  0  0
  1  2  1  0  0  0
  1  3  2  0  0  0
  1 27  1  0  0  0
  2 11  2  0  0  0
  2 33  1  0  0  0
  3 16  1  0  0  0
  3 34  1  0  0  0
  4  5  2  0  0  0
  4 15  1  0  0  0
  4 29  1  0  0  0
  5 12  1  0  0  0
  5 14  1  0  0  0
  6 12  2  0  0  0
  6 28  1  0  0  0
  6 35  1  0  0  0
  7 28  2  0  0  0
  7 30  1  0  0  0
  7 36  1  0  0  0
  8 13  1  0  0  0
  8 30  2  0  0  0
  8 37  1  0  0  0
  9 10  1  0  0  0
  9 13  2  0  0  0
  9 38  1  0  0  0
 10 31  2  0  0  0
 10 39  1  0  0  0
 11 18  1  0  0  0
 11 40  1  0  0  0
 12 41  1  0  0  0
 13 23  1  0  0  0
 14 18  2  0  0  0
 15 16  2  0  0  0
 15 42  1  0  0  0
 16 18  1  0  0  0
 17 19  1  0  0  0
 17 27  1  0  0  0
 17 43  1  0  0  0
 17 44  1  0  0  0
 19 20  1  0  0  0
 19 45  1  0  0  0
 19 46  1  0  0  0
 20 22  1  0  0  0
 20 47  1  0  0  0
 20 48  1  0  0  0
 21 23  1  0  0  0
 21 24  1  0  0  0
 21 49  1  0  0  0
 21 50  1  0  0  0
 22 51  1  0  0  0
 22 52  1  0  0  0
 22 53  1  0  0  0
 23 54  1  0  0  0
 23 55  1  0  0  0
 24 25  1  0  0  0
 24 56  1  0  0  0
 24 57  1  0  0  0
 25 26  1  0  0  0
 25 58  1  0  0  0
 25 59  1  0  0  0
 26 60  1  0  0  0
 26 61  1  0  0  0
 26 62  1  0  0  0
 27 63  1  0  0  0
 27 64  1  0  0  0
 28 29  1  0  0  0
 29 32  2  0  0  0
 30 31  1  0  0  0
 31 32  1  0  0  0
M  CHG  2  17   1  21   1
M  END
> <i_m_stars>
0

> <s_m_entry_id>
183

> <s_m_entry_name>
Structure183

> <s_pdb_PDB_TITLE>
G-QUADRUPLEX RECOGNITION BY QUINACRIDINES: A SAR, NMR AND BIOLOGICAL STUDY

> <s_pdb_PDB_ID>
2JWQ

> <s_pdb_PDB_CLASSIFICATION>
DNA

> <s_pdb_PDB_DEPOSITION_DATE>
23-OCT-07

> <s_pdb_PDB_format_version>
3.30

> <s_pdb_PDB_EXPDTA>
SOLUTION NMR

> <r_pdb_PDB_EXPDTA_TEMPERATURE>
318

> <r_pdb_PDB_EXPDTA_PH>
7

> <s_pdb_PDB_REMARK_350_Biomolecule_1_Chains>
A, B, C, D

> <s_pdb_PDB_REMARK_350_Biomolecule_1_Transformation_1>
1.000000 0.000000 0.000000   0.000000;0.000000 1.000000 0.000000   0.000000;0.000000 0.000000 1.000000   0.000000

> <s_m_Source_Path>
G:\02ReData201904034\NLData\PDBs\2JWQ

> <s_m_Source_File>
2JWQ.pdb

> <i_m_Source_File_Index>
1

> <s_ppw_entry_id_backup>
180

> <b_ppw_prepared>
1

> <s_ppw_prepared_with_version>
2018-3

> <b_ppw_assigned_bond_orders>
1

> <b_ppw_added_hydrogens>
1

> <b_ppw_treated_metals>
1

> <b_ppw_created_disulfur>
1

> <b_ppw_deleted_far_waters>
1

$$$$
