@<TRIPOS>MOLECULE
MOL
   82    87     1     0     0
SMALL
bcc


@<TRIPOS>ATOM
      1 C1           6.3800    -7.9160    -3.9930 c3         1 MOL      -0.128100
      2 C2           7.7680    -7.8370    -3.3550 c3         1 MOL      -0.007700
      3 N1           7.7770    -6.8280    -2.2720 na         1 MOL       0.024900
      4 C3           8.0770    -5.4900    -2.5610 ca         1 MOL      -0.016300
      5 C4           8.0840    -4.5450    -1.5390 ca         1 MOL      -0.154500
      6 C5           7.4840    -7.2100    -0.9560 ca         1 MOL      -0.016300
      7 C6           7.4920    -6.2590     0.0600 ca         1 MOL      -0.154500
      8 C7           7.7920    -4.9280    -0.2300 cp         1 MOL       0.110000
      9 C8           7.7990    -3.9800     0.7900 cp         1 MOL      -0.120333
     10 C9           6.7060    -3.8730     1.6500 ca         1 MOL      -0.061000
     11 C10          6.7120    -2.9250     2.6720 ca         1 MOL      -0.161000
     12 C11          8.8980    -3.1360     0.9540 ca         1 MOL      -0.061000
     13 C12          8.9030    -2.1870     1.9760 ca         1 MOL      -0.161000
     14 C13          7.8100    -2.0820     2.8350 ca         1 MOL       0.189600
     15 N2           7.8150    -1.1740     3.8130 nh         1 MOL      -0.447800
     16 C14          7.8710    -1.6280     5.0660 ca         1 MOL       0.189600
     17 C15          6.7950    -1.4300     5.9300 ca         1 MOL      -0.161000
     18 C16          6.8530    -1.9050     7.2380 ca         1 MOL      -0.061000
     19 C17          9.0070    -2.3030     5.5140 ca         1 MOL      -0.161000
     20 C18          9.0660    -2.7780     6.8230 ca         1 MOL      -0.061000
     21 C19          7.9890    -2.5800     7.6860 cp         1 MOL      -0.120333
     22 C20          8.0470    -3.0550     8.9930 cp         1 MOL       0.110000
     23 C21          8.3810    -4.3880     9.2350 ca         1 MOL      -0.154500
     24 C22          8.4400    -4.8660    10.5400 ca         1 MOL      -0.016300
     25 C23          7.7710    -2.1970    10.0580 ca         1 MOL      -0.154500
     26 C24          7.8280    -2.6680    11.3660 ca         1 MOL      -0.016300
     27 N3           8.1630    -4.0070    11.6120 na         1 MOL       0.024900
     28 C25          8.2250    -4.5120    13.0020 c3         1 MOL      -0.007700
     29 C26          9.6430    -4.3600    13.5570 c3         1 MOL      -0.128100
     30 C27          7.6370     0.1110     3.5050 ca         1 MOL       0.189600
     31 C28          6.4660     0.5210     2.8660 ca         1 MOL      -0.161000
     32 C29          6.2810     1.8640     2.5440 ca         1 MOL      -0.061000
     33 C30          8.6210     1.0470     3.8210 ca         1 MOL      -0.161000
     34 C31          8.4350     2.3910     3.4980 ca         1 MOL      -0.061000
     35 C32          7.2650     2.7990     2.8600 cp         1 MOL      -0.120333
     36 C33          7.0790     4.1390     2.5370 cp         1 MOL       0.110000
     37 C34          7.0710     5.1030     3.5450 ca         1 MOL      -0.154500
     38 C35          6.8850     6.4450     3.2250 ca         1 MOL      -0.016300
     39 C36          6.9020     4.5140     1.2060 ca         1 MOL      -0.154500
     40 C37          6.7160     5.8540     0.8780 ca         1 MOL      -0.016300
     41 N4           6.7060     6.8250     1.8880 na         1 MOL       0.024900
     42 C38          6.5080     8.2510     1.5440 c3         1 MOL      -0.007700
     43 C39          7.8570     8.9220     1.2740 c3         1 MOL      -0.128100
     44 H1           6.3870    -8.6620    -4.7880 hc         1 MOL       0.077367
     45 H2           5.6470    -8.1980    -3.2370 hc         1 MOL       0.077367
     46 H3           6.1150    -6.9440    -4.4090 hc         1 MOL       0.077367
     47 H4           8.5010    -7.5620    -4.1130 h1         1 MOL       0.101700
     48 H5           8.0350    -8.8110    -2.9460 h1         1 MOL       0.101700
     49 H6           8.3020    -5.1940    -3.5750 h4         1 MOL       0.212000
     50 H7           8.3160    -3.5130    -1.7590 ha         1 MOL       0.191000
     51 H8           7.2530    -8.2410    -0.7320 h4         1 MOL       0.212000
     52 H9           7.2660    -6.5510     1.0750 ha         1 MOL       0.191000
     53 H10          5.8540    -4.5250     1.5240 ha         1 MOL       0.151000
     54 H11          5.8660    -2.8440     3.3380 ha         1 MOL       0.161000
     55 H12          9.7450    -3.2170     0.2890 ha         1 MOL       0.151000
     56 H13          9.7540    -1.5340     2.1020 ha         1 MOL       0.161000
     57 H14          5.9150    -0.9080     5.5850 ha         1 MOL       0.161000
     58 H15          6.0180    -1.7510     7.9060 ha         1 MOL       0.151000
     59 H16          9.8420    -2.4580     4.8460 ha         1 MOL       0.161000
     60 H17          9.9460    -3.3000     7.1690 ha         1 MOL       0.151000
     61 H18          8.5940    -5.0500     8.4090 ha         1 MOL       0.191000
     62 H19          8.6990    -5.8980    10.7260 h4         1 MOL       0.212000
     63 H20          7.5130    -1.1660     9.8680 ha         1 MOL       0.191000
     64 H21          7.6140    -2.0020    12.1890 h4         1 MOL       0.212000
     65 H22          7.9390    -5.5640    13.0190 h1         1 MOL       0.101700
     66 H23          7.5290    -3.9490    13.6240 h1         1 MOL       0.101700
     67 H24          9.6750    -4.7350    14.5800 hc         1 MOL       0.077367
     68 H25         10.3380    -4.9290    12.9400 hc         1 MOL       0.077367
     69 H26          9.9270    -3.3080    13.5470 hc         1 MOL       0.077367
     70 H27          5.7030    -0.2030     2.6210 ha         1 MOL       0.161000
     71 H28          5.3750     2.1810     2.0490 ha         1 MOL       0.151000
     72 H29          9.5270     0.7310     4.3160 ha         1 MOL       0.161000
     73 H30          9.1980     3.1160     3.7420 ha         1 MOL       0.151000
     74 H31          7.2090     4.8090     4.5750 ha         1 MOL       0.191000
     75 H32          6.8790     7.1910     4.0060 h4         1 MOL       0.212000
     76 H33          6.9090     3.7650     0.4280 ha         1 MOL       0.191000
     77 H34          6.5800     6.1440    -0.1530 h4         1 MOL       0.212000
     78 H35          6.0090     8.7580     2.3700 h1         1 MOL       0.101700
     79 H36          5.8810     8.3260     0.6560 h1         1 MOL       0.101700
     80 H37          7.6980     9.9700     1.0220 hc         1 MOL       0.077367
     81 H38          8.4820     8.8540     2.1640 hc         1 MOL       0.077367
     82 H39          8.3530     8.4200     0.4430 hc         1 MOL       0.077367
@<TRIPOS>BOND
     1     1     2 1   
     2     1    44 1   
     3     1    45 1   
     4     1    46 1   
     5     2     3 1   
     6     2    47 1   
     7     2    48 1   
     8     3     4 2   
     9     3     6 1   
    10     4     5 ar  
    11     4    49 1   
    12     5     8 ar  
    13     5    50 1   
    14     6     7 ar  
    15     6    51 1   
    16     7     8 ar  
    17     7    52 1   
    18     8     9 1   
    19     9    10 ar  
    20     9    12 ar  
    21    10    11 ar  
    22    10    53 1   
    23    11    14 ar  
    24    11    54 1   
    25    12    13 ar  
    26    12    55 1   
    27    13    14 ar  
    28    13    56 1   
    29    14    15 1   
    30    15    16 1   
    31    15    30 1   
    32    16    17 ar  
    33    16    19 ar  
    34    17    18 ar  
    35    17    57 1   
    36    18    21 ar  
    37    18    58 1   
    38    19    20 ar  
    39    19    59 1   
    40    20    21 ar  
    41    20    60 1   
    42    21    22 1   
    43    22    23 ar  
    44    22    25 ar  
    45    23    24 ar  
    46    23    61 1   
    47    24    27 2   
    48    24    62 1   
    49    25    26 ar  
    50    25    63 1   
    51    26    27 1   
    52    26    64 1   
    53    27    28 1   
    54    28    29 1   
    55    28    65 1   
    56    28    66 1   
    57    29    67 1   
    58    29    68 1   
    59    29    69 1   
    60    30    31 ar  
    61    30    33 ar  
    62    31    32 ar  
    63    31    70 1   
    64    32    35 ar  
    65    32    71 1   
    66    33    34 ar  
    67    33    72 1   
    68    34    35 ar  
    69    34    73 1   
    70    35    36 1   
    71    36    37 ar  
    72    36    39 ar  
    73    37    38 ar  
    74    37    74 1   
    75    38    41 2   
    76    38    75 1   
    77    39    40 ar  
    78    39    76 1   
    79    40    41 1   
    80    40    77 1   
    81    41    42 1   
    82    42    43 1   
    83    42    78 1   
    84    42    79 1   
    85    43    80 1   
    86    43    81 1   
    87    43    82 1   
@<TRIPOS>SUBSTRUCTURE
     1 MOL         1 TEMP              0 ****  ****    0 ROOT
