
                    3D
 Schrodinger Suite 2021-1.
 82 87  0  0  1  0            999 V2000
    6.3800   -7.9160   -3.9930 C   0  0  0  0  0  0
    7.7680   -7.8370   -3.3550 C   0  0  0  0  0  0
    7.7770   -6.8280   -2.2720 N   0  0  0  0  0  0
    8.0770   -5.4900   -2.5610 C   0  0  0  0  0  0
    8.0840   -4.5450   -1.5390 C   0  0  0  0  0  0
    7.4840   -7.2100   -0.9560 C   0  0  0  0  0  0
    7.4920   -6.2590    0.0600 C   0  0  0  0  0  0
    7.7920   -4.9280   -0.2300 C   0  0  0  0  0  0
    7.7990   -3.9800    0.7900 C   0  0  0  0  0  0
    6.7060   -3.8730    1.6500 C   0  0  0  0  0  0
    6.7120   -2.9250    2.6720 C   0  0  0  0  0  0
    8.8980   -3.1360    0.9540 C   0  0  0  0  0  0
    8.9030   -2.1870    1.9760 C   0  0  0  0  0  0
    7.8100   -2.0820    2.8350 C   0  0  0  0  0  0
    7.8150   -1.1740    3.8130 N   0  0  0  0  0  0
    7.8710   -1.6280    5.0660 C   0  0  0  0  0  0
    6.7950   -1.4300    5.9300 C   0  0  0  0  0  0
    6.8530   -1.9050    7.2380 C   0  0  0  0  0  0
    9.0070   -2.3030    5.5140 C   0  0  0  0  0  0
    9.0660   -2.7780    6.8230 C   0  0  0  0  0  0
    7.9890   -2.5800    7.6860 C   0  0  0  0  0  0
    8.0470   -3.0550    8.9930 C   0  0  0  0  0  0
    8.3810   -4.3880    9.2350 C   0  0  0  0  0  0
    8.4400   -4.8660   10.5400 C   0  0  0  0  0  0
    7.7710   -2.1970   10.0580 C   0  0  0  0  0  0
    7.8280   -2.6680   11.3660 C   0  0  0  0  0  0
    8.1630   -4.0070   11.6120 N   0  0  0  0  0  0
    8.2250   -4.5120   13.0020 C   0  0  0  0  0  0
    9.6430   -4.3600   13.5570 C   0  0  0  0  0  0
    7.6370    0.1110    3.5050 C   0  0  0  0  0  0
    6.4660    0.5210    2.8660 C   0  0  0  0  0  0
    6.2810    1.8640    2.5440 C   0  0  0  0  0  0
    8.6210    1.0470    3.8210 C   0  0  0  0  0  0
    8.4350    2.3910    3.4980 C   0  0  0  0  0  0
    7.2650    2.7990    2.8600 C   0  0  0  0  0  0
    7.0790    4.1390    2.5370 C   0  0  0  0  0  0
    7.0710    5.1030    3.5450 C   0  0  0  0  0  0
    6.8850    6.4450    3.2250 C   0  0  0  0  0  0
    6.9020    4.5140    1.2060 C   0  0  0  0  0  0
    6.7160    5.8540    0.8780 C   0  0  0  0  0  0
    6.7060    6.8250    1.8880 N   0  0  0  0  0  0
    6.5080    8.2510    1.5440 C   0  0  0  0  0  0
    7.8570    8.9220    1.2740 C   0  0  0  0  0  0
    6.3869   -8.6617   -4.7880 H   0  0  0  0  0  0
    5.6475   -8.1985   -3.2369 H   0  0  0  0  0  0
    6.1151   -6.9441   -4.4094 H   0  0  0  0  0  0
    8.5010   -7.5621   -4.1134 H   0  0  0  0  0  0
    8.0354   -8.8112   -2.9458 H   0  0  0  0  0  0
    8.3021   -5.1939   -3.5749 H   0  0  0  0  0  0
    8.3158   -3.5134   -1.7590 H   0  0  0  0  0  0
    7.2525   -8.2408   -0.7317 H   0  0  0  0  0  0
    7.2657   -6.5511    1.0748 H   0  0  0  0  0  0
    5.8542   -4.5249    1.5244 H   0  0  0  0  0  0
    5.8656   -2.8435    3.3379 H   0  0  0  0  0  0
    9.7453   -3.2174    0.2893 H   0  0  0  0  0  0
    9.7536   -1.5335    2.1019 H   0  0  0  0  0  0
    5.9148   -0.9076    5.5854 H   0  0  0  0  0  0
    6.0184   -1.7509    7.9060 H   0  0  0  0  0  0
    9.8416   -2.4578    4.8463 H   0  0  0  0  0  0
    9.9461   -3.2996    7.1690 H   0  0  0  0  0  0
    8.5941   -5.0499    8.4086 H   0  0  0  0  0  0
    8.6990   -5.8979   10.7259 H   0  0  0  0  0  0
    7.5127   -1.1658    9.8677 H   0  0  0  0  0  0
    7.6144   -2.0025   12.1894 H   0  0  0  0  0  0
    7.9392   -5.5637   13.0192 H   0  0  0  0  0  0
    7.5293   -3.9489   13.6242 H   0  0  0  0  0  0
    9.6755   -4.7350   14.5800 H   0  0  0  0  0  0
   10.3382   -4.9290   12.9398 H   0  0  0  0  0  0
    9.9267   -3.3076   13.5472 H   0  0  0  0  0  0
    5.7028   -0.2028    2.6209 H   0  0  0  0  0  0
    5.3747    2.1808    2.0493 H   0  0  0  0  0  0
    9.5275    0.7313    4.3160 H   0  0  0  0  0  0
    9.1976    3.1156    3.7423 H   0  0  0  0  0  0
    7.2092    4.8086    4.5749 H   0  0  0  0  0  0
    6.8789    7.1906    4.0063 H   0  0  0  0  0  0
    6.9091    3.7646    0.4283 H   0  0  0  0  0  0
    6.5797    6.1436   -0.1535 H   0  0  0  0  0  0
    6.0093    8.7579    2.3701 H   0  0  0  0  0  0
    5.8808    8.3265    0.6558 H   0  0  0  0  0  0
    7.6979    9.9705    1.0221 H   0  0  0  0  0  0
    8.4821    8.8536    2.1643 H   0  0  0  0  0  0
    8.3530    8.4204    0.4430 H   0  0  0  0  0  0
  1  2  1  0  0  0
  1 44  1  0  0  0
  1 45  1  0  0  0
  1 46  1  0  0  0
  2  3  1  0  0  0
  2 47  1  0  0  0
  2 48  1  0  0  0
  3  4  2  0  0  0
  3  6  1  0  0  0
  4  5  1  0  0  0
  4 49  1  0  0  0
  5  8  2  0  0  0
  5 50  1  0  0  0
  6  7  2  0  0  0
  6 51  1  0  0  0
  7  8  1  0  0  0
  7 52  1  0  0  0
  8  9  1  0  0  0
  9 10  1  0  0  0
  9 12  2  0  0  0
 10 11  2  0  0  0
 10 53  1  0  0  0
 11 14  1  0  0  0
 11 54  1  0  0  0
 12 13  1  0  0  0
 12 55  1  0  0  0
 13 14  2  0  0  0
 13 56  1  0  0  0
 14 15  1  0  0  0
 15 16  1  0  0  0
 15 30  1  0  0  0
 16 17  1  0  0  0
 16 19  2  0  0  0
 17 18  2  0  0  0
 17 57  1  0  0  0
 18 21  1  0  0  0
 18 58  1  0  0  0
 19 20  1  0  0  0
 19 59  1  0  0  0
 20 21  2  0  0  0
 20 60  1  0  0  0
 21 22  1  0  0  0
 22 23  2  0  0  0
 22 25  1  0  0  0
 23 24  1  0  0  0
 23 61  1  0  0  0
 24 27  2  0  0  0
 24 62  1  0  0  0
 25 26  2  0  0  0
 25 63  1  0  0  0
 26 27  1  0  0  0
 26 64  1  0  0  0
 27 28  1  0  0  0
 28 29  1  0  0  0
 28 65  1  0  0  0
 28 66  1  0  0  0
 29 67  1  0  0  0
 29 68  1  0  0  0
 29 69  1  0  0  0
 30 31  2  0  0  0
 30 33  1  0  0  0
 31 32  1  0  0  0
 31 70  1  0  0  0
 32 35  2  0  0  0
 32 71  1  0  0  0
 33 34  2  0  0  0
 33 72  1  0  0  0
 34 35  1  0  0  0
 34 73  1  0  0  0
 35 36  1  0  0  0
 36 37  2  0  0  0
 36 39  1  0  0  0
 37 38  1  0  0  0
 37 74  1  0  0  0
 38 41  2  0  0  0
 38 75  1  0  0  0
 39 40  2  0  0  0
 39 76  1  0  0  0
 40 41  1  0  0  0
 40 77  1  0  0  0
 41 42  1  0  0  0
 42 43  1  0  0  0
 42 78  1  0  0  0
 42 79  1  0  0  0
 43 80  1  0  0  0
 43 81  1  0  0  0
 43 82  1  0  0  0
M  END
> <i_pdb_PDB_Model>
1

> <s_pdb_PDB_format_version>
3.0

> <b_ppw_prepared>
1

> <s_ppw_prepared_with_version>
2021-1

> <s_ppw_het_states>
eJxNkkuOwkAMBa8Ssc6M4g8Jmaug3ACxY4W4+9jG1QoL/Oy2ql/cfl/k8jfd4yfztBzzdNeO1tE7XjuuHbeOt457R1kQEAWkwBSgAlXAClwBLJAVsg6vkBWyQlbIClkhK2SFbJANso0xQDbIBtkgG2SDbJAdskN2yF7kVDn7qEqP31pGjDu15drVKF1bRrx1Q5xuLbeqSr/N3jLjctLa3VUUkhD5NsKzCV5K4KZaMFFiPSXGNVXdzskOIKtYLyG0ZQuAFIq3EmNKad84yQQ7VeUTUihzyZZcBmUrFG/VwsxSKFPLbzEcVDIeJ6qGnRS5FsrG2Hg4/54Im2OMKoXhrZJxaVQNOyl8OIiW3ChltZy5pXDspPAyGtnP8huN7888PV+Px/f/OD7/INvTtQ==

$$$$
