Structure210
  -OEChem-07142314533D

176182  0     1  0  0  0  0  0999 V2000
    7.7860    0.8640   -2.4310 N   0  0  0  0  0  0  0  0  0  0  0  0
    6.5970    0.6920   -3.2740 C   0  0  2  0  0  0  0  0  0  0  0  0
    6.6790    1.6470   -4.4320 C   0  0  0  0  0  0  0  0  0  0  0  0
    7.4770    2.5850   -4.3310 O   0  0  0  0  0  0  0  0  0  0  0  0
    5.2750    0.9340   -2.5250 C   0  0  2  0  0  0  0  0  0  0  0  0
    5.3780    2.2160   -1.8620 O   0  0  0  0  0  0  0  0  0  0  0  0
    4.9850   -0.1180   -1.4920 C   0  0  0  0  0  0  0  0  0  0  0  0
    8.4210    1.4550   -2.8990 H   0  0  0  0  0  0  0  0  0  0  0  0
    5.9070    1.3810   -5.5030 N   0  0  0  0  0  0  0  0  0  0  0  0
    5.7420    2.3930   -6.5250 C   0  0  2  0  0  0  0  0  0  0  0  0
    4.3430    2.2320   -7.1470 C   0  0  0  0  0  0  0  0  0  0  0  0
    3.1970    2.4190   -6.1840 C   0  0  0  0  0  0  0  0  0  0  0  0
    4.0020    2.9870   -8.4250 C   0  0  0  0  0  0  0  0  0  0  0  0
    6.8990    2.2690   -7.5180 C   0  0  0  0  0  0  0  0  0  0  0  0
    7.5680    1.2210   -7.5290 O   0  0  0  0  0  0  0  0  0  0  0  0
    5.5400    0.4860   -5.6310 H   0  0  0  0  0  0  0  0  0  0  0  0
    7.3320    3.2890   -8.2770 N   0  0  0  0  0  0  0  0  0  0  0  0
    7.2770    4.7230   -7.9550 C   0  0  2  0  0  0  0  0  0  0  0  0
    6.0140    5.5780   -8.1650 C   0  0  0  0  0  0  0  0  0  0  0  0
    5.4690    5.6450   -9.2750 O   0  0  0  0  0  0  0  0  0  0  0  0
    8.4480    5.1930   -8.7930 C   0  0  0  0  0  0  0  0  0  0  0  0
    8.3970    4.4160  -10.0990 C   0  0  0  0  0  0  0  0  0  0  0  0
    7.8340    3.0610   -9.6450 C   0  0  0  0  0  0  0  0  0  0  0  0
    5.5000    6.2240   -7.1070 N   0  0  0  0  0  0  0  0  0  0  0  0
    6.0280    6.1540   -5.7590 C   0  0  0  0  0  0  0  0  0  0  0  0
    5.2020    5.4070   -4.7140 C   0  0  0  0  0  0  0  0  0  0  0  0
    4.0520    5.0380   -4.9840 O   0  0  0  0  0  0  0  0  0  0  0  0
    4.4610    7.2350   -7.3020 C   0  0  0  0  0  0  0  0  0  0  0  0
    5.7820    5.1820   -3.5160 N   0  0  0  0  0  0  0  0  0  0  0  0
    7.1610    5.6000   -3.3050 C   0  0  0  0  0  0  0  0  0  0  0  0
    5.1770    4.6570   -2.3020 C   0  0  1  0  0  0  0  0  0  0  0  0
    4.1620    5.7080   -1.6990 C   0  0  0  0  0  0  0  0  0  0  0  0
    2.7130    5.6580   -2.2310 C   0  0  0  0  0  0  0  0  0  0  0  0
    4.2330    5.7350   -0.1620 C   0  0  0  0  0  0  0  0  0  0  0  0
    4.6360    3.2450   -2.4230 C   0  0  0  0  0  0  0  0  0  0  0  0
    3.8010    2.9760   -3.2780 O   0  0  0  0  0  0  0  0  0  0  0  0
    9.4570   -0.2090   -1.0580 C   0  0  0  0  0  0  0  0  0  0  0  0
    8.4590   -0.2360   -2.0780 C   0  0  0  0  0  0  0  0  0  0  0  0
    8.2180   -1.2960   -2.6790 O   0  0  0  0  0  0  0  0  0  0  0  0
    9.1950   -0.4630    0.3140 C   0  0  0  0  0  0  0  0  0  0  0  0
    7.9780   -0.7390    0.7770 N   0  0  0  0  0  0  0  0  0  0  0  0
   10.2410   -0.4380    1.2600 C   0  0  0  0  0  0  0  0  0  0  0  0
   10.0060   -0.6670    2.4460 O   0  0  0  0  0  0  0  0  0  0  0  0
   11.5510   -0.1670    0.8840 C   0  0  0  0  0  0  0  0  0  0  0  0
   13.0770    0.3720   -0.8650 O   0  0  0  0  0  0  0  0  0  0  0  0
   14.6690    0.9010   -2.5470 C   0  0  0  0  0  0  0  0  0  0  0  0
   14.9440    1.1380   -3.9140 C   0  0  0  0  0  0  0  0  0  0  0  0
   13.9200    1.0820   -4.8690 C   0  0  0  0  0  0  0  0  0  0  0  0
   12.5880    0.8030   -4.5060 C   0  0  0  0  0  0  0  0  0  0  0  0
   11.6030    0.7470   -5.5290 C   0  0  0  0  0  0  0  0  0  0  0  0
   10.9500    1.7290   -5.9190 O   0  0  0  0  0  0  0  0  0  0  0  0
   11.0770    0.3070   -2.7130 N   0  0  0  0  0  0  0  0  0  0  0  0
   10.7820    0.0680   -1.4380 C   0  0  0  0  0  0  0  0  0  0  0  0
   11.8250    0.0940   -0.4630 C   0  0  0  0  0  0  0  0  0  0  0  0
   13.3510    0.6180   -2.1610 C   0  0  0  0  0  0  0  0  0  0  0  0
   12.3010    0.5750   -3.1300 C   0  0  0  0  0  0  0  0  0  0  0  0
   12.6510   -0.1650    1.9370 C   0  0  0  0  0  0  0  0  0  0  0  0
   15.7760    0.9460   -1.4980 C   0  0  0  0  0  0  0  0  0  0  0  0
    7.8470   -0.9150    1.7710 H   0  0  0  0  0  0  0  0  0  0  0  0
    7.1830   -0.7800    0.1560 H   0  0  0  0  0  0  0  0  0  0  0  0
   11.4380   -0.4710   -6.0710 N   0  0  0  0  0  0  0  0  0  0  0  0
   10.7160   -0.6140   -7.3360 C   0  0  2  0  0  0  0  0  0  0  0  0
    9.5800   -1.5920   -7.2110 C   0  0  0  0  0  0  0  0  0  0  0  0
    9.6560   -2.4600   -6.3560 O   0  0  0  0  0  0  0  0  0  0  0  0
   11.5570   -1.1080   -8.5100 C   0  0  2  0  0  0  0  0  0  0  0  0
   12.4730   -2.1150   -8.0400 O   0  0  0  0  0  0  0  0  0  0  0  0
   12.3080    0.0360   -9.1480 C   0  0  0  0  0  0  0  0  0  0  0  0
   10.9800   -1.0110   -5.3880 H   0  0  0  0  0  0  0  0  0  0  0  0
    8.5310   -1.3890   -8.0110 N   0  0  0  0  0  0  0  0  0  0  0  0
    7.4370   -2.3260   -8.1220 C   0  0  2  0  0  0  0  0  0  0  0  0
    6.9140   -2.3750   -9.5670 C   0  0  0  0  0  0  0  0  0  0  0  0
    5.6390   -3.2000   -9.7320 C   0  0  0  0  0  0  0  0  0  0  0  0
    8.0050   -2.8910  -10.5080 C   0  0  0  0  0  0  0  0  0  0  0  0
    6.3240   -2.0550   -7.1120 C   0  0  0  0  0  0  0  0  0  0  0  0
    5.7060   -0.9680   -7.1110 O   0  0  0  0  0  0  0  0  0  0  0  0
    8.4800   -0.5590   -8.5250 H   0  0  0  0  0  0  0  0  0  0  0  0
    6.1730   -2.9730   -6.1360 N   0  0  0  0  0  0  0  0  0  0  0  0
    7.1740   -3.9590   -5.7100 C   0  0  2  0  0  0  0  0  0  0  0  0
    7.4170   -5.1860   -6.6190 C   0  0  0  0  0  0  0  0  0  0  0  0
    6.4960   -5.4580   -7.4050 O   0  0  0  0  0  0  0  0  0  0  0  0
    6.6740   -4.3170   -4.3120 C   0  0  0  0  0  0  0  0  0  0  0  0
    5.4950   -3.4390   -4.0470 C   0  0  0  0  0  0  0  0  0  0  0  0
    4.9350   -3.2420   -5.4290 C   0  0  0  0  0  0  0  0  0  0  0  0
    8.5840   -5.8950   -6.7050 N   0  0  0  0  0  0  0  0  0  0  0  0
    9.9710   -5.5590   -6.3090 C   0  0  0  0  0  0  0  0  0  0  0  0
   10.8580   -4.9550   -7.4310 C   0  0  0  0  0  0  0  0  0  0  0  0
   10.2620   -4.3240   -8.3160 O   0  0  0  0  0  0  0  0  0  0  0  0
    8.3910   -7.3240   -6.7570 C   0  0  0  0  0  0  0  0  0  0  0  0
   12.2230   -5.0420   -7.5230 N   0  0  0  0  0  0  0  0  0  0  0  0
   12.9450   -5.4160   -6.3190 C   0  0  0  0  0  0  0  0  0  0  0  0
   13.1350   -4.4890   -8.5670 C   0  0  1  0  0  0  0  0  0  0  0  0
   13.3970   -5.3420   -9.8790 C   0  0  0  0  0  0  0  0  0  0  0  0
   14.2620   -6.5500   -9.6350 C   0  0  0  0  0  0  0  0  0  0  0  0
   12.1450   -5.6990  -10.6790 C   0  0  0  0  0  0  0  0  0  0  0  0
   12.8790   -3.0410   -9.0060 C   0  0  0  0  0  0  0  0  0  0  0  0
   13.2660   -2.6470  -10.1250 O   0  0  0  0  0  0  0  0  0  0  0  0
    6.5930   -0.3259   -3.6639 H   0  0  0  0  0  0  0  0  0  0  0  0
    4.4562    0.9665   -3.2437 H   0  0  0  0  0  0  0  0  0  0  0  0
    4.0399    0.1078   -0.9981 H   0  0  0  0  0  0  0  0  0  0  0  0
    4.9183   -1.0931   -1.9745 H   0  0  0  0  0  0  0  0  0  0  0  0
    5.7861   -0.1329   -0.7530 H   0  0  0  0  0  0  0  0  0  0  0  0
    5.7979    3.3732   -6.0515 H   0  0  0  0  0  0  0  0  0  0  0  0
    4.2910    1.1808   -7.4304 H   0  0  0  0  0  0  0  0  0  0  0  0
    2.2527    2.2869   -6.7121 H   0  0  0  0  0  0  0  0  0  0  0  0
    3.2709    1.6832   -5.3832 H   0  0  0  0  0  0  0  0  0  0  0  0
    3.2382    3.4222   -5.7598 H   0  0  0  0  0  0  0  0  0  0  0  0
    2.9785    2.7572   -8.7212 H   0  0  0  0  0  0  0  0  0  0  0  0
    4.0974    4.0588   -8.2509 H   0  0  0  0  0  0  0  0  0  0  0  0
    4.6857    2.6861   -9.2188 H   0  0  0  0  0  0  0  0  0  0  0  0
    7.5668    4.8290   -6.9096 H   0  0  0  0  0  0  0  0  0  0  0  0
    9.3793    4.9677   -8.2733 H   0  0  0  0  0  0  0  0  0  0  0  0
    8.3412    6.2578   -9.0003 H   0  0  0  0  0  0  0  0  0  0  0  0
    9.4113    4.2758  -10.4726 H   0  0  0  0  0  0  0  0  0  0  0  0
    7.6846    4.8928  -10.7722 H   0  0  0  0  0  0  0  0  0  0  0  0
    7.0037    2.7792  -10.2925 H   0  0  0  0  0  0  0  0  0  0  0  0
    8.6386    2.3262   -9.6171 H   0  0  0  0  0  0  0  0  0  0  0  0
    6.2293    7.1636   -5.4009 H   0  0  0  0  0  0  0  0  0  0  0  0
    7.0324    5.7316   -5.7898 H   0  0  0  0  0  0  0  0  0  0  0  0
    4.1692    7.6478   -6.3363 H   0  0  0  0  0  0  0  0  0  0  0  0
    4.8449    8.0335   -7.9369 H   0  0  0  0  0  0  0  0  0  0  0  0
    3.5935    6.7781   -7.7783 H   0  0  0  0  0  0  0  0  0  0  0  0
    7.4678    5.3436   -2.2910 H   0  0  0  0  0  0  0  0  0  0  0  0
    7.8086    5.0918   -4.0195 H   0  0  0  0  0  0  0  0  0  0  0  0
    7.2402    6.6779   -3.4464 H   0  0  0  0  0  0  0  0  0  0  0  0
    5.9900    4.5934   -1.5788 H   0  0  0  0  0  0  0  0  0  0  0  0
    4.5433    6.6792   -2.0145 H   0  0  0  0  0  0  0  0  0  0  0  0
    2.1181    6.4278   -1.7394 H   0  0  0  0  0  0  0  0  0  0  0  0
    2.7142    5.8323   -3.3070 H   0  0  0  0  0  0  0  0  0  0  0  0
    2.2825    4.6785   -2.0226 H   0  0  0  0  0  0  0  0  0  0  0  0
    3.5232    6.4676    0.2222 H   0  0  0  0  0  0  0  0  0  0  0  0
    3.9853    4.7490    0.2311 H   0  0  0  0  0  0  0  0  0  0  0  0
    5.2409    6.0076    0.1509 H   0  0  0  0  0  0  0  0  0  0  0  0
   15.9513    1.3648   -4.2308 H   0  0  0  0  0  0  0  0  0  0  0  0
   14.1437    1.2549   -5.9113 H   0  0  0  0  0  0  0  0  0  0  0  0
   13.6061    0.0652    1.4650 H   0  0  0  0  0  0  0  0  0  0  0  0
   12.4293    0.5879    2.6933 H   0  0  0  0  0  0  0  0  0  0  0  0
   12.7061   -1.1467    2.4075 H   0  0  0  0  0  0  0  0  0  0  0  0
   15.3543    0.7370   -0.5148 H   0  0  0  0  0  0  0  0  0  0  0  0
   16.5324    0.1978   -1.7349 H   0  0  0  0  0  0  0  0  0  0  0  0
   16.2333    1.9354   -1.4938 H   0  0  0  0  0  0  0  0  0  0  0  0
   10.2999    0.3579   -7.6014 H   0  0  0  0  0  0  0  0  0  0  0  0
   10.8960   -1.5532   -9.2536 H   0  0  0  0  0  0  0  0  0  0  0  0
   12.9009   -0.3384   -9.9825 H   0  0  0  0  0  0  0  0  0  0  0  0
   11.5984    0.7792   -9.5117 H   0  0  0  0  0  0  0  0  0  0  0  0
   12.9675    0.4942   -8.4110 H   0  0  0  0  0  0  0  0  0  0  0  0
    7.8392   -3.3134   -7.8953 H   0  0  0  0  0  0  0  0  0  0  0  0
    6.6823   -1.3525   -9.8653 H   0  0  0  0  0  0  0  0  0  0  0  0
    5.3307   -3.1882  -10.7774 H   0  0  0  0  0  0  0  0  0  0  0  0
    5.8277   -4.2275   -9.4210 H   0  0  0  0  0  0  0  0  0  0  0  0
    4.8475   -2.7738   -9.1155 H   0  0  0  0  0  0  0  0  0  0  0  0
    7.6216   -2.9208  -11.5279 H   0  0  0  0  0  0  0  0  0  0  0  0
    8.8677   -2.2263  -10.4640 H   0  0  0  0  0  0  0  0  0  0  0  0
    8.3038   -3.8940  -10.2033 H   0  0  0  0  0  0  0  0  0  0  0  0
    8.1246   -3.4376   -5.5976 H   0  0  0  0  0  0  0  0  0  0  0  0
    7.4553   -4.1044   -3.5823 H   0  0  0  0  0  0  0  0  0  0  0  0
    6.3595   -5.3605   -4.2959 H   0  0  0  0  0  0  0  0  0  0  0  0
    5.8416   -2.4805   -3.6607 H   0  0  0  0  0  0  0  0  0  0  0  0
    4.7711   -3.9841   -3.4413 H   0  0  0  0  0  0  0  0  0  0  0  0
    4.5242   -4.1878   -5.7823 H   0  0  0  0  0  0  0  0  0  0  0  0
    4.3205   -2.3418   -5.4367 H   0  0  0  0  0  0  0  0  0  0  0  0
   10.4559   -6.4482   -5.9060 H   0  0  0  0  0  0  0  0  0  0  0  0
    9.9476   -4.8748   -5.4608 H   0  0  0  0  0  0  0  0  0  0  0  0
    9.3594   -7.8197   -6.8244 H   0  0  0  0  0  0  0  0  0  0  0  0
    7.8761   -7.6547   -5.8550 H   0  0  0  0  0  0  0  0  0  0  0  0
    7.7915   -7.5786   -7.6310 H   0  0  0  0  0  0  0  0  0  0  0  0
   14.0138   -5.4476   -6.5307 H   0  0  0  0  0  0  0  0  0  0  0  0
   12.7517   -4.6826   -5.5362 H   0  0  0  0  0  0  0  0  0  0  0  0
   12.6120   -6.3989   -5.9856 H   0  0  0  0  0  0  0  0  0  0  0  0
   14.1077   -4.4501   -8.0766 H   0  0  0  0  0  0  0  0  0  0  0  0
   13.9823   -4.6948  -10.5322 H   0  0  0  0  0  0  0  0  0  0  0  0
   14.4038   -7.0909  -10.5706 H   0  0  0  0  0  0  0  0  0  0  0  0
   15.2306   -6.2320   -9.2494 H   0  0  0  0  0  0  0  0  0  0  0  0
   13.7786   -7.2028   -8.9081 H   0  0  0  0  0  0  0  0  0  0  0  0
   12.4274   -6.2815  -11.5559 H   0  0  0  0  0  0  0  0  0  0  0  0
   11.4699   -6.2855  -10.0558 H   0  0  0  0  0  0  0  0  0  0  0  0
   11.6433   -4.7850  -10.9968 H   0  0  0  0  0  0  0  0  0  0  0  0
  1  2  1  0  0  0  0
  1  8  1  0  0  0  0
  1 38  1  0  0  0  0
  2  3  1  0  0  0  0
  2  5  1  0  0  0  0
  2 97  1  0  0  0  0
  3  4  2  0  0  0  0
  3  9  1  0  0  0  0
  5  6  1  0  0  0  0
  5  7  1  0  0  0  0
  5 98  1  0  0  0  0
  6 35  1  0  0  0  0
  7 99  1  0  0  0  0
  7100  1  0  0  0  0
  7101  1  0  0  0  0
  9 10  1  0  0  0  0
  9 16  1  0  0  0  0
 10 11  1  0  0  0  0
 10 14  1  0  0  0  0
 10102  1  0  0  0  0
 11 12  1  0  0  0  0
 11 13  1  0  0  0  0
 11103  1  0  0  0  0
 12104  1  0  0  0  0
 12105  1  0  0  0  0
 12106  1  0  0  0  0
 13107  1  0  0  0  0
 13108  1  0  0  0  0
 13109  1  0  0  0  0
 14 15  2  0  0  0  0
 14 17  1  0  0  0  0
 17 18  1  0  0  0  0
 17 23  1  0  0  0  0
 18 19  1  0  0  0  0
 18 21  1  0  0  0  0
 18110  1  0  0  0  0
 19 20  2  0  0  0  0
 19 24  1  0  0  0  0
 21 22  1  0  0  0  0
 21111  1  0  0  0  0
 21112  1  0  0  0  0
 22 23  1  0  0  0  0
 22113  1  0  0  0  0
 22114  1  0  0  0  0
 23115  1  0  0  0  0
 23116  1  0  0  0  0
 24 25  1  0  0  0  0
 24 28  1  0  0  0  0
 25 26  1  0  0  0  0
 25117  1  0  0  0  0
 25118  1  0  0  0  0
 26 27  2  0  0  0  0
 26 29  1  0  0  0  0
 28119  1  0  0  0  0
 28120  1  0  0  0  0
 28121  1  0  0  0  0
 29 30  1  0  0  0  0
 29 31  1  0  0  0  0
 30122  1  0  0  0  0
 30123  1  0  0  0  0
 30124  1  0  0  0  0
 31 32  1  0  0  0  0
 31 35  1  0  0  0  0
 31125  1  0  0  0  0
 32 33  1  0  0  0  0
 32 34  1  0  0  0  0
 32126  1  0  0  0  0
 33127  1  0  0  0  0
 33128  1  0  0  0  0
 33129  1  0  0  0  0
 34130  1  0  0  0  0
 34131  1  0  0  0  0
 34132  1  0  0  0  0
 35 36  2  0  0  0  0
 37 38  1  0  0  0  0
 37 40  2  0  0  0  0
 37 53  1  0  0  0  0
 38 39  2  0  0  0  0
 40 41  1  0  0  0  0
 40 42  1  0  0  0  0
 41 59  1  0  0  0  0
 41 60  1  0  0  0  0
 42 43  2  0  0  0  0
 42 44  1  0  0  0  0
 44 54  2  0  0  0  0
 44 57  1  0  0  0  0
 45 54  1  0  0  0  0
 45 55  1  0  0  0  0
 46 47  2  0  0  0  0
 46 55  1  0  0  0  0
 46 58  1  0  0  0  0
 47 48  1  0  0  0  0
 47133  1  0  0  0  0
 48 49  2  0  0  0  0
 48134  1  0  0  0  0
 49 50  1  0  0  0  0
 49 56  1  0  0  0  0
 50 51  2  0  0  0  0
 50 61  1  0  0  0  0
 52 53  2  0  0  0  0
 52 56  1  0  0  0  0
 53 54  1  0  0  0  0
 55 56  2  0  0  0  0
 57135  1  0  0  0  0
 57136  1  0  0  0  0
 57137  1  0  0  0  0
 58138  1  0  0  0  0
 58139  1  0  0  0  0
 58140  1  0  0  0  0
 61 62  1  0  0  0  0
 61 68  1  0  0  0  0
 62 63  1  0  0  0  0
 62 65  1  0  0  0  0
 62141  1  0  0  0  0
 63 64  2  0  0  0  0
 63 69  1  0  0  0  0
 65 66  1  0  0  0  0
 65 67  1  0  0  0  0
 65142  1  0  0  0  0
 66 95  1  0  0  0  0
 67143  1  0  0  0  0
 67144  1  0  0  0  0
 67145  1  0  0  0  0
 69 70  1  0  0  0  0
 69 76  1  0  0  0  0
 70 71  1  0  0  0  0
 70 74  1  0  0  0  0
 70146  1  0  0  0  0
 71 72  1  0  0  0  0
 71 73  1  0  0  0  0
 71147  1  0  0  0  0
 72148  1  0  0  0  0
 72149  1  0  0  0  0
 72150  1  0  0  0  0
 73151  1  0  0  0  0
 73152  1  0  0  0  0
 73153  1  0  0  0  0
 74 75  2  0  0  0  0
 74 77  1  0  0  0  0
 77 78  1  0  0  0  0
 77 83  1  0  0  0  0
 78 79  1  0  0  0  0
 78 81  1  0  0  0  0
 78154  1  0  0  0  0
 79 80  2  0  0  0  0
 79 84  1  0  0  0  0
 81 82  1  0  0  0  0
 81155  1  0  0  0  0
 81156  1  0  0  0  0
 82 83  1  0  0  0  0
 82157  1  0  0  0  0
 82158  1  0  0  0  0
 83159  1  0  0  0  0
 83160  1  0  0  0  0
 84 85  1  0  0  0  0
 84 88  1  0  0  0  0
 85 86  1  0  0  0  0
 85161  1  0  0  0  0
 85162  1  0  0  0  0
 86 87  2  0  0  0  0
 86 89  1  0  0  0  0
 88163  1  0  0  0  0
 88164  1  0  0  0  0
 88165  1  0  0  0  0
 89 90  1  0  0  0  0
 89 91  1  0  0  0  0
 90166  1  0  0  0  0
 90167  1  0  0  0  0
 90168  1  0  0  0  0
 91 92  1  0  0  0  0
 91 95  1  0  0  0  0
 91169  1  0  0  0  0
 92 93  1  0  0  0  0
 92 94  1  0  0  0  0
 92170  1  0  0  0  0
 93171  1  0  0  0  0
 93172  1  0  0  0  0
 93173  1  0  0  0  0
 94174  1  0  0  0  0
 94175  1  0  0  0  0
 94176  1  0  0  0  0
 95 96  2  0  0  0  0
M  END
$$$$
