@<TRIPOS>MOLECULE
MOL
   71    77     1     0     0
SMALL
bcc


@<TRIPOS>ATOM
      1 N1          -7.4580    -4.6240     3.7240 nz         1 MOL      -0.822600
      2 C1          -6.5360    -5.5700     3.0560 c3         1 MOL       0.036500
      3 C2          -6.0920    -6.6880     4.0710 c3         1 MOL       0.130100
      4 O1          -7.1890    -7.5590     4.3390 oh         1 MOL      -0.621800
      5 C3          -4.9040    -7.5580     3.5620 c3         1 MOL       0.097100
      6 O2          -4.4780    -8.4120     4.6200 oh         1 MOL      -0.601800
      7 C4          -3.7290    -6.6490     3.1010 c3         1 MOL       0.067100
      8 C5          -2.5510    -7.4130     2.4730 c3         1 MOL       0.130400
      9 O3          -1.3020    -6.9550     2.9710 oh         1 MOL      -0.594800
     10 O4          -4.2300    -5.7340     2.0820 os         1 MOL      -0.407600
     11 C6          -5.3080    -4.8040     2.4570 c3         1 MOL       0.363900
     12 O5          -5.7510    -4.1090     1.2700 os         1 MOL      -0.455600
     13 C7          -4.8800    -3.1310     0.6240 c3         1 MOL       0.178100
     14 C8          -4.1220    -3.8420    -0.4980 c3         1 MOL      -0.093400
     15 C9          -4.0620    -2.8860    -1.6920 c3         1 MOL      -0.174700
     16 C10         -4.9240    -1.6170    -1.3620 c3         1 MOL      -0.003400
     17 C11         -3.8930    -0.4760    -1.5330 ca         1 MOL      -0.068300
     18 C12         -4.1040     0.9080    -1.3650 ca         1 MOL      -0.095000
     19 C13         -3.0420     1.8180    -1.5740 ca         1 MOL      -0.013000
     20 C14         -3.2270     3.2050    -1.4170 ca         1 MOL      -0.129000
     21 C15         -2.1540     4.0880    -1.6330 ca         1 MOL      -0.102000
     22 C16         -0.8870     3.6060    -2.0060 ca         1 MOL      -0.120000
     23 C17         -0.6620     2.2270    -2.1690 ca         1 MOL      -0.106000
     24 C18         -1.7140     1.3110    -1.9620 ca         1 MOL      -0.056000
     25 C19         -1.5150    -0.0730    -2.1210 ca         1 MOL      -0.016000
     26 C20         -2.6250    -0.9550    -1.9030 ca         1 MOL      -0.191600
     27 C21         -2.6280    -2.4240    -2.0240 c          1 MOL       0.589700
     28 O6          -1.6760    -3.1420    -2.3270 o          1 MOL      -0.508100
     29 C22         -5.6700    -1.9090     0.0140 c3         1 MOL      -0.078700
     30 C23         -5.8040    -0.6850     1.0940 ca         1 MOL      -0.087300
     31 C24         -4.6920    -0.2520     1.8890 ca         1 MOL      -0.116000
     32 C25         -4.8250     0.7960     2.8230 ca         1 MOL      -0.118000
     33 C26         -6.0680     1.4340     2.9890 ca         1 MOL      -0.106000
     34 C27         -7.1730     1.0430     2.2270 ca         1 MOL      -0.119000
     35 C28         -7.0560     0.0040     1.2900 ca         1 MOL      -0.075300
     36 C29         -8.3060    -0.3750     0.4780 c3         1 MOL      -0.035100
     37 C30         -8.4230    -1.8900     0.2080 c3         1 MOL      -0.175400
     38 C31         -7.1300    -2.4550    -0.4140 c          1 MOL       0.640100
     39 O7          -7.2570    -3.3500    -1.2540 o          1 MOL      -0.627100
     40 H1          -7.7400    -3.9090     3.0690 hn         1 MOL       0.473800
     41 H2          -8.2740    -5.1220     4.0500 hn         1 MOL       0.473800
     42 H3          -6.9900    -4.1950     4.5090 hn         1 MOL       0.473800
     43 H4          -7.0730    -6.0480     2.2360 hx         1 MOL       0.130700
     44 H5          -5.7950    -6.2090     5.0040 h1         1 MOL       0.074700
     45 H6          -6.9140    -8.2390     4.9580 ho         1 MOL       0.465000
     46 H7          -5.2390    -8.1660     2.7220 h1         1 MOL       0.074700
     47 H8          -3.7450    -8.9540     4.3190 ho         1 MOL       0.456000
     48 H9          -3.3680    -6.0720     3.9530 h1         1 MOL       0.072700
     49 H10         -2.5760    -7.2920     1.3900 h1         1 MOL       0.078700
     50 H11         -2.6560    -8.4780     2.6820 h1         1 MOL       0.078700
     51 H12         -0.5910    -7.4520     2.5590 ho         1 MOL       0.421000
     52 H13         -4.9340    -4.0840     3.1850 h2         1 MOL       0.083700
     53 H14         -4.1620    -2.7590     1.3550 h1         1 MOL       0.090700
     54 H15         -4.6600    -4.7460    -0.7840 hc         1 MOL       0.070200
     55 H16         -3.1100    -4.0700    -0.1640 hc         1 MOL       0.070200
     56 H17         -4.4840    -3.3830    -2.5650 hc         1 MOL       0.077700
     57 H18         -5.6800    -1.5100    -2.1400 hc         1 MOL       0.077700
     58 H19         -5.0780     1.2750    -1.0760 ha         1 MOL       0.137000
     59 H20         -4.1940     3.5920    -1.1300 ha         1 MOL       0.137000
     60 H21         -2.2970     5.1520    -1.5130 ha         1 MOL       0.144000
     61 H22         -0.0730     4.2970    -2.1710 ha         1 MOL       0.146000
     62 H23          0.3170     1.8690    -2.4530 ha         1 MOL       0.143000
     63 H24         -0.5430    -0.4500    -2.4010 ha         1 MOL       0.158000
     64 H25         -3.7300    -0.7310     1.7780 ha         1 MOL       0.132000
     65 H26         -3.9740     1.1080     3.4100 ha         1 MOL       0.146000
     66 H27         -6.1730     2.2320     3.7090 ha         1 MOL       0.148000
     67 H28         -8.1230     1.5410     2.3580 ha         1 MOL       0.143000
     68 H29         -8.2980     0.1620    -0.4700 hc         1 MOL       0.067700
     69 H30         -9.1970    -0.0310     1.0040 hc         1 MOL       0.067700
     70 H31         -9.2600    -2.0750    -0.4650 hc         1 MOL       0.086200
     71 H32         -8.6330    -2.4100     1.1430 hc         1 MOL       0.086200
@<TRIPOS>BOND
     1     1     2 1   
     2     1    40 1   
     3     1    41 1   
     4     1    42 1   
     5     2     3 1   
     6     2    11 1   
     7     2    43 1   
     8     3     4 1   
     9     3     5 1   
    10     3    44 1   
    11     4    45 1   
    12     5     6 1   
    13     5     7 1   
    14     5    46 1   
    15     6    47 1   
    16     7     8 1   
    17     7    10 1   
    18     7    48 1   
    19     8     9 1   
    20     8    49 1   
    21     8    50 1   
    22     9    51 1   
    23    10    11 1   
    24    11    12 1   
    25    11    52 1   
    26    12    13 1   
    27    13    14 1   
    28    13    29 1   
    29    13    53 1   
    30    14    15 1   
    31    14    54 1   
    32    14    55 1   
    33    15    16 1   
    34    15    27 1   
    35    15    56 1   
    36    16    17 1   
    37    16    29 1   
    38    16    57 1   
    39    17    18 ar  
    40    17    26 ar  
    41    18    19 ar  
    42    18    58 1   
    43    19    20 ar  
    44    19    24 ar  
    45    20    21 ar  
    46    20    59 1   
    47    21    22 ar  
    48    21    60 1   
    49    22    23 ar  
    50    22    61 1   
    51    23    24 ar  
    52    23    62 1   
    53    24    25 ar  
    54    25    26 ar  
    55    25    63 1   
    56    26    27 1   
    57    27    28 2   
    58    29    30 1   
    59    29    38 1   
    60    30    31 ar  
    61    30    35 ar  
    62    31    32 ar  
    63    31    64 1   
    64    32    33 ar  
    65    32    65 1   
    66    33    34 ar  
    67    33    66 1   
    68    34    35 ar  
    69    34    67 1   
    70    35    36 1   
    71    36    37 1   
    72    36    68 1   
    73    36    69 1   
    74    37    38 1   
    75    37    70 1   
    76    37    71 1   
    77    38    39 2   
@<TRIPOS>SUBSTRUCTURE
     1 MOL         1 TEMP              0 ****  ****    0 ROOT
