
                    3D
 Schrodinger Suite 2021-1.
 71 77  0  0  1  0            999 V2000
   -7.4580   -4.6240    3.7240 N   0  3  0  0  0  0
   -6.5360   -5.5700    3.0560 C   0  0  2  0  0  0
   -6.0920   -6.6880    4.0710 C   0  0  1  0  0  0
   -7.1890   -7.5590    4.3390 O   0  0  0  0  0  0
   -4.9040   -7.5580    3.5620 C   0  0  2  0  0  0
   -4.4780   -8.4120    4.6200 O   0  0  0  0  0  0
   -3.7290   -6.6490    3.1010 C   0  0  1  0  0  0
   -2.5510   -7.4130    2.4730 C   0  0  0  0  0  0
   -1.3020   -6.9550    2.9710 O   0  0  0  0  0  0
   -4.2300   -5.7340    2.0820 O   0  0  0  0  0  0
   -5.3080   -4.8040    2.4570 C   0  0  1  0  0  0
   -5.7510   -4.1090    1.2700 O   0  0  0  0  0  0
   -4.8800   -3.1310    0.6240 C   0  0  1  0  0  0
   -4.1220   -3.8420   -0.4980 C   0  0  0  0  0  0
   -4.0620   -2.8860   -1.6920 C   0  0  1  0  0  0
   -4.9240   -1.6170   -1.3620 C   0  0  2  0  0  0
   -3.8930   -0.4760   -1.5330 C   0  0  0  0  0  0
   -4.1040    0.9080   -1.3650 C   0  0  0  0  0  0
   -3.0420    1.8180   -1.5740 C   0  0  0  0  0  0
   -3.2270    3.2050   -1.4170 C   0  0  0  0  0  0
   -2.1540    4.0880   -1.6330 C   0  0  0  0  0  0
   -0.8870    3.6060   -2.0060 C   0  0  0  0  0  0
   -0.6620    2.2270   -2.1690 C   0  0  0  0  0  0
   -1.7140    1.3110   -1.9620 C   0  0  0  0  0  0
   -1.5150   -0.0730   -2.1210 C   0  0  0  0  0  0
   -2.6250   -0.9550   -1.9030 C   0  0  0  0  0  0
   -2.6280   -2.4240   -2.0240 C   0  0  0  0  0  0
   -1.6760   -3.1420   -2.3270 O   0  0  0  0  0  0
   -5.6700   -1.9090    0.0140 C   0  0  2  0  0  0
   -5.8040   -0.6850    1.0940 C   0  0  0  0  0  0
   -4.6920   -0.2520    1.8890 C   0  0  0  0  0  0
   -4.8250    0.7960    2.8230 C   0  0  0  0  0  0
   -6.0680    1.4340    2.9890 C   0  0  0  0  0  0
   -7.1730    1.0430    2.2270 C   0  0  0  0  0  0
   -7.0560    0.0040    1.2900 C   0  0  0  0  0  0
   -8.3060   -0.3750    0.4780 C   0  0  0  0  0  0
   -8.4230   -1.8900    0.2080 C   0  0  0  0  0  0
   -7.1300   -2.4550   -0.4140 C   0  0  0  0  0  0
   -7.2570   -3.3500   -1.2540 O   0  0  0  0  0  0
   -7.7400   -3.9088    3.0690 H   0  0  0  0  0  0
   -8.2740   -5.1219    4.0500 H   0  0  0  0  0  0
   -6.9900   -4.1949    4.5094 H   0  0  0  0  0  0
   -7.0727   -6.0476    2.2363 H   0  0  0  0  0  0
   -5.7949   -6.2093    5.0041 H   0  0  0  0  0  0
   -6.9143   -8.2392    4.9582 H   0  0  0  0  0  0
   -5.2385   -8.1665    2.7218 H   0  0  0  0  0  0
   -3.7452   -8.9542    4.3189 H   0  0  0  0  0  0
   -3.3678   -6.0725    3.9526 H   0  0  0  0  0  0
   -2.5761   -7.2917    1.3901 H   0  0  0  0  0  0
   -2.6564   -8.4776    2.6821 H   0  0  0  0  0  0
   -0.5912   -7.4518    2.5592 H   0  0  0  0  0  0
   -4.9343   -4.0842    3.1852 H   0  0  0  0  0  0
   -4.1624   -2.7589    1.3552 H   0  0  0  0  0  0
   -4.6604   -4.7457   -0.7836 H   0  0  0  0  0  0
   -3.1096   -4.0696   -0.1643 H   0  0  0  0  0  0
   -4.4845   -3.3834   -2.5650 H   0  0  0  0  0  0
   -5.6796   -1.5096   -2.1402 H   0  0  0  0  0  0
   -5.0780    1.2746   -1.0762 H   0  0  0  0  0  0
   -4.1938    3.5918   -1.1304 H   0  0  0  0  0  0
   -2.2974    5.1517   -1.5127 H   0  0  0  0  0  0
   -0.0734    4.2969   -2.1707 H   0  0  0  0  0  0
    0.3168    1.8694   -2.4528 H   0  0  0  0  0  0
   -0.5426   -0.4500   -2.4014 H   0  0  0  0  0  0
   -3.7302   -0.7306    1.7783 H   0  0  0  0  0  0
   -3.9735    1.1078    3.4096 H   0  0  0  0  0  0
   -6.1735    2.2319    3.7091 H   0  0  0  0  0  0
   -8.1225    1.5408    2.3577 H   0  0  0  0  0  0
   -8.2979    0.1620   -0.4705 H   0  0  0  0  0  0
   -9.1969   -0.0312    1.0036 H   0  0  0  0  0  0
   -9.2602   -2.0749   -0.4651 H   0  0  0  0  0  0
   -8.6331   -2.4099    1.1427 H   0  0  0  0  0  0
  1  2  1  0  0  0
  1 40  1  0  0  0
  1 41  1  0  0  0
  1 42  1  0  0  0
  2  3  1  0  0  0
  2 11  1  0  0  0
  2 43  1  0  0  0
  3  4  1  0  0  0
  3  5  1  0  0  0
  3 44  1  0  0  0
  4 45  1  0  0  0
  5  6  1  0  0  0
  5  7  1  0  0  0
  5 46  1  0  0  0
  6 47  1  0  0  0
  7  8  1  0  0  0
  7 10  1  0  0  0
  7 48  1  0  0  0
  8  9  1  0  0  0
  8 49  1  0  0  0
  8 50  1  0  0  0
  9 51  1  0  0  0
 10 11  1  0  0  0
 11 12  1  0  0  0
 11 52  1  0  0  0
 12 13  1  0  0  0
 13 14  1  0  0  0
 13 29  1  0  0  0
 13 53  1  0  0  0
 14 15  1  0  0  0
 14 54  1  0  0  0
 14 55  1  0  0  0
 15 16  1  0  0  0
 15 27  1  0  0  0
 15 56  1  0  0  0
 16 17  1  0  0  0
 16 29  1  0  0  0
 16 57  1  0  0  0
 17 18  2  0  0  0
 17 26  1  0  0  0
 18 19  1  0  0  0
 18 58  1  0  0  0
 19 20  2  0  0  0
 19 24  1  0  0  0
 20 21  1  0  0  0
 20 59  1  0  0  0
 21 22  2  0  0  0
 21 60  1  0  0  0
 22 23  1  0  0  0
 22 61  1  0  0  0
 23 24  2  0  0  0
 23 62  1  0  0  0
 24 25  1  0  0  0
 25 26  2  0  0  0
 25 63  1  0  0  0
 26 27  1  0  0  0
 27 28  2  0  0  0
 29 30  1  0  0  0
 29 38  1  0  0  0
 30 31  2  0  0  0
 30 35  1  0  0  0
 31 32  1  0  0  0
 31 64  1  0  0  0
 32 33  2  0  0  0
 32 65  1  0  0  0
 33 34  1  0  0  0
 33 66  1  0  0  0
 34 35  2  0  0  0
 34 67  1  0  0  0
 35 36  1  0  0  0
 36 37  1  0  0  0
 36 68  1  0  0  0
 36 69  1  0  0  0
 37 38  1  0  0  0
 37 70  1  0  0  0
 37 71  1  0  0  0
 38 39  2  0  0  0
M  CHG  1   1   1
M  END
> <i_pdb_PDB_Model>
1

> <s_pdb_PDB_format_version>
3.0

> <b_ppw_prepared>
1

> <s_ppw_prepared_with_version>
2021-1

> <s_ppw_het_states>
eJztk0GOwjAMRa9Ssa5G9XdogasgboBmNyvE3YlT/6T72Yw0nwX+seDVcvNeJzvdpnv92DzZY57umKclqmctWc9Z16xb1kvWa1ZbGIyBSCPTCDVSjVgj1wg2kkEySAbJIBkkg2SQDJJBMkh2kp1k72sg2Ul2kp1kJ9lJ9kaOFHvFWK2PaNx47ZURzxlrXUfcMtZ6GTF2bfkSrhlbj+gW+PgWOEAL5XBAB0SXU7SwHg7gJK17PAxAdOtE4AEdELP3n9UQrxT9wHFat9/HWCDyZy30Hfr+H/DFg1NHiIeCF6BPHQGcLSZ2rrAduNvoxl1APxAdXedGI8QFAW+K9xdZ9v+AN8a5gwjOcSKMh9YQFwdxcexrKWttvN7z9P3zfO7f7UZJVakqVaWqVJWqUlWqSlWp+u9UXaSqVJWqf0TVrcSzpKpUlapSVapKVakqVaWqVJWqUlWqSlWpKlWlqlT9vaqP9wcndqBJ

$$$$
