
                    3D
 Schrodinger Suite 2021-1.
 68 74  0  0  1  0            999 V2000
    6.0950    0.4830    0.9720 C   0  0  0  0  0  0
    4.7990    1.0070    0.7200 C   0  0  0  0  0  0
    6.8350   -0.2110    0.0100 C   0  0  0  0  0  0
    6.2790   -0.3630   -1.2540 C   0  0  0  0  0  0
    4.9520    0.1920   -1.4770 C   0  0  0  0  0  0
    4.3440    0.0220   -2.7810 C   0  0  0  0  0  0
    5.0920   -0.6740   -3.8210 C   0  0  0  0  0  0
    6.9640   -1.0310   -2.2870 C   0  0  0  0  0  0
    1.3890    3.1780    6.2500 C   0  0  0  0  0  0
   -1.9860    5.6140    3.0520 C   0  0  0  0  0  0
    2.4920    0.3460   -4.1780 C   0  0  0  0  0  0
    4.1330    1.6910    1.9040 C   0  0  0  0  0  0
    6.3790   -1.1790   -3.5610 C   0  0  0  0  0  0
    4.4860   -0.8160   -5.0660 C   0  0  0  0  0  0
    3.1950   -0.3010   -5.2250 C   0  0  0  0  0  0
    1.0880    0.8140   -4.5210 C   0  0  0  0  0  0
   -1.8870    5.5490    4.4490 C   0  0  0  0  0  0
   -0.8300    2.0550   -3.3880 C   0  0  0  0  0  0
   -1.2350    2.4820   -2.1190 C   0  0  0  0  0  0
   -2.4360    3.1810   -1.9830 C   0  0  0  0  0  0
   -3.2490    3.4360   -3.1750 C   0  0  0  0  0  0
   -1.6580    2.3000   -4.5050 C   0  0  0  0  0  0
   -2.8400    3.6310   -0.7170 C   0  0  0  0  0  0
   -0.8650    4.8060    5.0580 C   0  0  0  0  0  0
   -4.4890    4.1930   -2.9570 C   0  0  0  0  0  0
   -4.0220    4.3690   -0.5670 C   0  0  0  0  0  0
   -4.8420    4.6380   -1.6730 C   0  0  0  0  0  0
   -1.0670    4.9360    2.2370 C   0  0  0  0  0  0
    1.9240    2.7740    2.5440 C   0  0  0  0  0  0
    2.0350    2.7180    3.9500 C   0  0  0  0  0  0
    0.8680    3.4920    1.9690 C   0  0  0  0  0  0
   -0.0340    4.1690    2.8010 C   0  0  0  0  0  0
    0.1270    4.0750    4.2560 C   0  0  0  0  0  0
   -3.6220    3.2340   -5.6420 C   0  0  0  0  0  0
    4.2010    0.8740   -0.5190 N   0  0  0  0  0  0
    2.8350    2.1160    1.6730 N   0  0  0  0  0  0
   -2.8480    2.9730   -4.4220 N   0  0  0  0  0  0
    0.4440    1.4370   -3.4700 N   0  0  0  0  0  0
    3.0600    0.5350   -2.9330 N   0  0  0  0  0  0
    1.1650    3.3310    4.8060 N   0  0  0  0  0  0
    0.5730    0.6730   -5.6170 O   0  0  0  0  0  0
    4.6660    1.8120    2.9970 O   0  0  0  0  0  0
    6.5509    0.6134    1.9423 H   0  0  0  0  0  0
    7.8071   -0.6094    0.2604 H   0  0  0  0  0  0
    7.9487   -1.4367   -2.1077 H   0  0  0  0  0  0
    0.6181    3.7205    6.7973 H   0  0  0  0  0  0
    1.3465    2.1215    6.5149 H   0  0  0  0  0  0
    2.3688    3.5783    6.5106 H   0  0  0  0  0  0
   -2.7756    6.1903    2.5928 H   0  0  0  0  0  0
    6.9281   -1.6855   -4.3410 H   0  0  0  0  0  0
    5.0119   -1.3104   -5.8693 H   0  0  0  0  0  0
    2.7350   -0.4131   -6.1957 H   0  0  0  0  0  0
   -2.6014    6.0738    5.0660 H   0  0  0  0  0  0
   -0.6206    2.2702   -1.2564 H   0  0  0  0  0  0
   -1.3624    1.9508   -5.4833 H   0  0  0  0  0  0
   -2.2385    3.4094    0.1522 H   0  0  0  0  0  0
   -0.7965    4.7635    6.1350 H   0  0  0  0  0  0
   -5.1408    4.4130   -3.7896 H   0  0  0  0  0  0
   -4.3092    4.7366    0.4071 H   0  0  0  0  0  0
   -5.7554    5.1954   -1.5268 H   0  0  0  0  0  0
   -1.1487    5.0001    1.1620 H   0  0  0  0  0  0
    2.8437    2.1665    4.4063 H   0  0  0  0  0  0
    0.7554    3.5198    0.8952 H   0  0  0  0  0  0
   -3.1204    2.7781   -6.4956 H   0  0  0  0  0  0
   -4.6200    2.8083   -5.5378 H   0  0  0  0  0  0
   -3.7010    4.3096   -5.7996 H   0  0  0  0  0  0
    2.4083    1.9677    0.7697 H   0  0  0  0  0  0
    0.8958    1.5039   -2.5692 H   0  0  0  0  0  0
  1  2  1  0  0  0
  1  3  2  0  0  0
  1 43  1  0  0  0
  2 12  1  0  0  0
  2 35  2  0  0  0
  3  4  1  0  0  0
  3 44  1  0  0  0
  4  5  1  0  0  0
  4  8  2  0  0  0
  5  6  2  0  0  0
  5 35  1  0  0  0
  6  7  1  0  0  0
  6 39  1  0  0  0
  7 13  2  0  0  0
  7 14  1  0  0  0
  8 13  1  0  0  0
  8 45  1  0  0  0
  9 40  1  0  0  0
  9 46  1  0  0  0
  9 47  1  0  0  0
  9 48  1  0  0  0
 10 17  2  0  0  0
 10 28  1  0  0  0
 10 49  1  0  0  0
 11 15  1  0  0  0
 11 16  1  0  0  0
 11 39  2  0  0  0
 12 36  1  0  0  0
 12 42  2  0  0  0
 13 50  1  0  0  0
 14 15  2  0  0  0
 14 51  1  0  0  0
 15 52  1  0  0  0
 16 38  1  0  0  0
 16 41  2  0  0  0
 17 24  1  0  0  0
 17 53  1  0  0  0
 18 19  2  0  0  0
 18 22  1  0  0  0
 18 38  1  0  0  0
 19 20  1  0  0  0
 19 54  1  0  0  0
 20 21  1  0  0  0
 20 23  2  0  0  0
 21 25  2  0  0  0
 21 37  1  0  0  0
 22 37  2  0  0  0
 22 55  1  0  0  0
 23 26  1  0  0  0
 23 56  1  0  0  0
 24 33  2  0  0  0
 24 57  1  0  0  0
 25 27  1  0  0  0
 25 58  1  0  0  0
 26 27  2  0  0  0
 26 59  1  0  0  0
 27 60  1  0  0  0
 28 32  2  0  0  0
 28 61  1  0  0  0
 29 30  1  0  0  0
 29 31  2  0  0  0
 29 36  1  0  0  0
 30 40  2  0  0  0
 30 62  1  0  0  0
 31 32  1  0  0  0
 31 63  1  0  0  0
 32 33  1  0  0  0
 33 40  1  0  0  0
 34 37  1  0  0  0
 34 64  1  0  0  0
 34 65  1  0  0  0
 34 66  1  0  0  0
 36 67  1  0  0  0
 38 68  1  0  0  0
M  END
> <i_pdb_PDB_Model>
1

> <s_pdb_PDB_format_version>
3.0

> <b_ppw_prepared>
1

> <s_ppw_prepared_with_version>
2021-1

> <s_ppw_het_states>
eJxNk0lyg0AMRa9CsSYpJDE5V3FxA1d2Wbl89+iDXoMXln4PrzXx7q3/6Z75s6Eb96F7etkoO5Wdyy5l17Jb2UdZG3EgGkiDaUANqoE1uAbYIDtkb7FCdsgO2SE7ZIfskB1yQA7I0coAOSAH5IAckANyQJ4gT5CngyxPJU9hR5JDlw95NcBYTqvnvBoy1XLa+XK3OpBLy+UGJ3JtvVxFZtU/40n5sLdz3aqnSsDoq5rjCJXRaLTNd7HchB50xiDaTgpVwhkHI01djoZOoco5o+GEqfGwhlYJ/LZzAXSEFORodi7Raq435psISiZskPZxnhQUSjSALrc7yymcaQsy1cRFC0fC7jugdUSFd2YySE5O0B45rT+azzPqVF/jd66/+5jz605/HBPSx+OulvVU/jjU1tRn6H7/Xq/zf98//5Yr2v0=

$$$$
