@<TRIPOS>MOLECULE
MOL
   68    74     1     0     0
SMALL
bcc


@<TRIPOS>ATOM
      1 C1           6.0950     0.4830     0.9720 ca         1 MOL      -0.188300
      2 C2           4.7990     1.0070     0.7200 ca         1 MOL       0.368800
      3 C3           6.8350    -0.2110     0.0100 ca         1 MOL      -0.092000
      4 C4           6.2790    -0.3630    -1.2540 ca         1 MOL      -0.126300
      5 C5           4.9520     0.1920    -1.4770 ca         1 MOL       0.358300
      6 C6           4.3440     0.0220    -2.7810 ca         1 MOL       0.358300
      7 C7           5.0920    -0.6740    -3.8210 ca         1 MOL      -0.126300
      8 C8           6.9640    -1.0310    -2.2870 ca         1 MOL      -0.105000
      9 C9           1.3890     3.1780     6.2500 c3         1 MOL       0.019600
     10 C10         -1.9860     5.6140     3.0520 ca         1 MOL      -0.132000
     11 C11          2.4920     0.3460    -4.1780 ca         1 MOL       0.368800
     12 C12          4.1330     1.6910     1.9040 c          1 MOL       0.571600
     13 C13          6.3790    -1.1790    -3.5610 ca         1 MOL      -0.105000
     14 C14          4.4860    -0.8160    -5.0660 ca         1 MOL      -0.092000
     15 C15          3.1950    -0.3010    -5.2250 ca         1 MOL      -0.188300
     16 C16          1.0880     0.8140    -4.5210 c          1 MOL       0.571600
     17 C17         -1.8870     5.5490     4.4490 ca         1 MOL      -0.123000
     18 C18         -0.8300     2.0550    -3.3880 ca         1 MOL       0.021600
     19 C19         -1.2350     2.4820    -2.1190 ca         1 MOL      -0.230000
     20 C20         -2.4360     3.1810    -1.9830 ca         1 MOL       0.010000
     21 C21         -3.2490     3.4360    -3.1750 ca         1 MOL       0.032700
     22 C22         -1.6580     2.3000    -4.5050 ca         1 MOL      -0.104300
     23 C23         -2.8400     3.6310    -0.7170 ca         1 MOL      -0.160000
     24 C24         -0.8650     4.8060     5.0580 ca         1 MOL      -0.199000
     25 C25         -4.4890     4.1930    -2.9570 ca         1 MOL      -0.199000
     26 C26         -4.0220     4.3690    -0.5670 ca         1 MOL      -0.132000
     27 C27         -4.8420     4.6380    -1.6730 ca         1 MOL      -0.123000
     28 C28         -1.0670     4.9360     2.2370 ca         1 MOL      -0.160000
     29 C29          1.9240     2.7740     2.5440 ca         1 MOL       0.021600
     30 C30          2.0350     2.7180     3.9500 ca         1 MOL      -0.104300
     31 C31          0.8680     3.4920     1.9690 ca         1 MOL      -0.230000
     32 C32         -0.0340     4.1690     2.8010 ca         1 MOL       0.010000
     33 C33          0.1270     4.0750     4.2560 ca         1 MOL       0.032700
     34 C34         -3.6220     3.2340    -5.6420 c3         1 MOL       0.019600
     35 N1           4.2010     0.8740    -0.5190 nb         1 MOL      -0.630000
     36 N2           2.8350     2.1160     1.6730 ns         1 MOL      -0.428100
     37 N3          -2.8480     2.9730    -4.4220 na         1 MOL      -0.089100
     38 N4           0.4440     1.4370    -3.4700 ns         1 MOL      -0.428100
     39 N5           3.0600     0.5350    -2.9330 nb         1 MOL      -0.630000
     40 N6           1.1650     3.3310     4.8060 na         1 MOL      -0.089100
     41 O1           0.5730     0.6730    -5.6170 o          1 MOL      -0.601100
     42 O2           4.6660     1.8120     2.9970 o          1 MOL      -0.601100
     43 H1           6.5510     0.6130     1.9420 ha         1 MOL       0.172000
     44 H2           7.8070    -0.6090     0.2600 ha         1 MOL       0.148000
     45 H3           7.9490    -1.4370    -2.1080 ha         1 MOL       0.143000
     46 H4           0.6180     3.7200     6.7970 h1         1 MOL       0.052367
     47 H5           1.3470     2.1220     6.5150 h1         1 MOL       0.052367
     48 H6           2.3690     3.5780     6.5110 h1         1 MOL       0.052367
     49 H7          -2.7760     6.1900     2.5930 ha         1 MOL       0.131000
     50 H8           6.9280    -1.6850    -4.3410 ha         1 MOL       0.143000
     51 H9           5.0120    -1.3100    -5.8690 ha         1 MOL       0.148000
     52 H10          2.7350    -0.4130    -6.1960 ha         1 MOL       0.172000
     53 H11         -2.6010     6.0740     5.0660 ha         1 MOL       0.127000
     54 H12         -0.6210     2.2700    -1.2560 ha         1 MOL       0.144000
     55 H13         -1.3620     1.9510    -5.4830 h4         1 MOL       0.189000
     56 H14         -2.2390     3.4090     0.1520 ha         1 MOL       0.145000
     57 H15         -0.7960     4.7630     6.1350 ha         1 MOL       0.129000
     58 H16         -5.1410     4.4130    -3.7900 ha         1 MOL       0.129000
     59 H17         -4.3090     4.7370     0.4070 ha         1 MOL       0.131000
     60 H18         -5.7550     5.1950    -1.5270 ha         1 MOL       0.127000
     61 H19         -1.1490     5.0000     1.1620 ha         1 MOL       0.145000
     62 H20          2.8440     2.1670     4.4060 h4         1 MOL       0.189000
     63 H21          0.7550     3.5200     0.8950 ha         1 MOL       0.144000
     64 H22         -3.1200     2.7780    -6.4960 h1         1 MOL       0.052367
     65 H23         -4.6200     2.8080    -5.5380 h1         1 MOL       0.052367
     66 H24         -3.7010     4.3100    -5.8000 h1         1 MOL       0.052367
     67 H25          2.4080     1.9680     0.7700 hn         1 MOL       0.339500
     68 H26          0.8960     1.5040    -2.5690 hn         1 MOL       0.339500
@<TRIPOS>BOND
     1     1     2 ar  
     2     1     3 ar  
     3     1    43 1   
     4     2    12 1   
     5     2    35 ar  
     6     3     4 ar  
     7     3    44 1   
     8     4     5 ar  
     9     4     8 ar  
    10     5     6 ar  
    11     5    35 ar  
    12     6     7 ar  
    13     6    39 ar  
    14     7    13 ar  
    15     7    14 ar  
    16     8    13 ar  
    17     8    45 1   
    18     9    40 1   
    19     9    46 1   
    20     9    47 1   
    21     9    48 1   
    22    10    17 ar  
    23    10    28 ar  
    24    10    49 1   
    25    11    15 ar  
    26    11    16 1   
    27    11    39 ar  
    28    12    36 1   
    29    12    42 2   
    30    13    50 1   
    31    14    15 ar  
    32    14    51 1   
    33    15    52 1   
    34    16    38 1   
    35    16    41 2   
    36    17    24 ar  
    37    17    53 1   
    38    18    19 ar  
    39    18    22 ar  
    40    18    38 1   
    41    19    20 ar  
    42    19    54 1   
    43    20    21 ar  
    44    20    23 ar  
    45    21    25 ar  
    46    21    37 2   
    47    22    37 1   
    48    22    55 1   
    49    23    26 ar  
    50    23    56 1   
    51    24    33 ar  
    52    24    57 1   
    53    25    27 ar  
    54    25    58 1   
    55    26    27 ar  
    56    26    59 1   
    57    27    60 1   
    58    28    32 ar  
    59    28    61 1   
    60    29    30 ar  
    61    29    31 ar  
    62    29    36 1   
    63    30    40 2   
    64    30    62 1   
    65    31    32 ar  
    66    31    63 1   
    67    32    33 ar  
    68    33    40 1   
    69    34    37 1   
    70    34    64 1   
    71    34    65 1   
    72    34    66 1   
    73    36    67 1   
    74    38    68 1   
@<TRIPOS>SUBSTRUCTURE
     1 MOL         1 TEMP              0 ****  ****    0 ROOT
