@<TRIPOS>MOLECULE
MOL
   38    40     1     0     0
SMALL
bcc


@<TRIPOS>ATOM
      1 N1          45.9020    43.2170     9.5120 na         1 MOL      -0.151300
      2 C1          44.9630    43.9340     8.7800 cc         1 MOL      -0.036200
      3 C2          43.7240    43.7220     9.3310 cc         1 MOL      -0.146000
      4 C3          43.0940    42.2560    11.4290 cd         1 MOL      -0.050000
      5 C4          43.6080    41.4460    12.4350 cc         1 MOL      -0.126000
      6 C5          44.9790    41.1680    12.5170 cc         1 MOL      -0.144000
      7 C6          45.8160    41.7310    11.5330 cc         1 MOL      -0.088000
      8 C7          45.2800    42.5550    10.5240 cd         1 MOL      -0.038200
      9 C8          43.9070    42.8270    10.4620 cd         1 MOL      -0.046000
     10 C9          45.4720    40.2710    13.5880 c2         1 MOL       0.504000
     11 N2          46.7900    40.2260    13.8620 nv         1 MOL      -0.801600
     12 N3          44.7540    39.5080    14.2970 nv         1 MOL      -0.801600
     13 C10         45.3860    44.6950     7.5800 cd         1 MOL       0.032000
     14 C11         44.5950    45.7110     7.0100 cd         1 MOL      -0.109000
     15 C12         45.0490    46.3830     5.8650 cc         1 MOL      -0.073500
     16 C13         46.2830    46.0330     5.2870 cc         1 MOL      -0.165000
     17 C14         47.0200    45.0250     5.8680 cc         1 MOL      -0.073500
     18 C15         46.5770    44.3810     6.9810 cd         1 MOL      -0.109000
     19 C16         46.8240    46.7090     4.0900 c2         1 MOL       0.504000
     20 N4          47.8290    46.2040     3.4650 nv         1 MOL      -0.799100
     21 N5          46.2980    47.8810     3.6940 nv         1 MOL      -0.799100
     22 H1          46.8770    43.2480     9.2510 hn         1 MOL       0.315700
     23 H2          42.8540    44.1970     8.9020 ha         1 MOL       0.182000
     24 H3          42.0330    42.4560    11.3860 ha         1 MOL       0.174000
     25 H4          42.9470    41.0170    13.1740 ha         1 MOL       0.155000
     26 H5          46.8770    41.5320    11.5490 ha         1 MOL       0.153000
     27 H6          47.1340    39.6170    14.5910 hn         1 MOL       0.484300
     28 H7          47.4340    40.8010    13.3390 hn         1 MOL       0.484300
     29 H8          45.1800    38.9290    15.0070 hn         1 MOL       0.484300
     30 H9          43.7550    39.4770    14.1530 hn         1 MOL       0.484300
     31 H10         43.6450    45.9690     7.4540 ha         1 MOL       0.167000
     32 H11         44.4510    47.1690     5.4280 ha         1 MOL       0.160000
     33 H12         47.9680    44.7330     5.4400 ha         1 MOL       0.160000
     34 H13         47.1980    43.5990     7.3920 ha         1 MOL       0.167000
     35 H14         48.1990    46.6660     2.6470 hn         1 MOL       0.486050
     36 H15         48.2480    45.3450     3.7930 hn         1 MOL       0.486050
     37 H16         46.6630    48.3480     2.8770 hn         1 MOL       0.486050
     38 H17         45.5370    48.2940     4.2140 hn         1 MOL       0.486050
@<TRIPOS>BOND
     1     1     2 1   
     2     1     8 1   
     3     1    22 1   
     4     2     3 1   
     5     2    13 2   
     6     3     9 2   
     7     3    23 1   
     8     4     5 2   
     9     4     9 1   
    10     4    24 1   
    11     5     6 1   
    12     5    25 1   
    13     6     7 1   
    14     6    10 2   
    15     7     8 2   
    16     7    26 1   
    17     8     9 1   
    18    10    11 1   
    19    10    12 1   
    20    11    27 1   
    21    11    28 1   
    22    12    29 1   
    23    12    30 1   
    24    13    14 1   
    25    13    18 1   
    26    14    15 2   
    27    14    31 1   
    28    15    16 1   
    29    15    32 1   
    30    16    17 1   
    31    16    19 2   
    32    17    18 2   
    33    17    33 1   
    34    18    34 1   
    35    19    20 1   
    36    19    21 1   
    37    20    35 1   
    38    20    36 1   
    39    21    37 1   
    40    21    38 1   
@<TRIPOS>SUBSTRUCTURE
     1 MOL         1 TEMP              0 ****  ****    0 ROOT
