
                    3D
 Schrodinger Suite 2021-1.
 38 40  0  0  1  0            999 V2000
   45.9020   43.2170    9.5120 N   0  0  0  0  0  0
   44.9630   43.9340    8.7800 C   0  0  0  0  0  0
   43.7240   43.7220    9.3310 C   0  0  0  0  0  0
   43.0940   42.2560   11.4290 C   0  0  0  0  0  0
   43.6080   41.4460   12.4350 C   0  0  0  0  0  0
   44.9790   41.1680   12.5170 C   0  0  0  0  0  0
   45.8160   41.7310   11.5330 C   0  0  0  0  0  0
   45.2800   42.5550   10.5240 C   0  0  0  0  0  0
   43.9070   42.8270   10.4620 C   0  0  0  0  0  0
   45.4720   40.2710   13.5880 C   0  0  0  0  0  0
   46.7900   40.2260   13.8620 N   0  3  0  0  0  0
   44.7540   39.5080   14.2970 N   0  0  0  0  0  0
   45.3860   44.6950    7.5800 C   0  0  0  0  0  0
   44.5950   45.7110    7.0100 C   0  0  0  0  0  0
   45.0490   46.3830    5.8650 C   0  0  0  0  0  0
   46.2830   46.0330    5.2870 C   0  0  0  0  0  0
   47.0200   45.0250    5.8680 C   0  0  0  0  0  0
   46.5770   44.3810    6.9810 C   0  0  0  0  0  0
   46.8240   46.7090    4.0900 C   0  0  0  0  0  0
   47.8290   46.2040    3.4650 N   0  3  0  0  0  0
   46.2980   47.8810    3.6940 N   0  0  0  0  0  0
   46.8771   43.2483    9.2507 H   0  0  0  0  0  0
   42.8539   44.1965    8.9020 H   0  0  0  0  0  0
   42.0335   42.4559   11.3856 H   0  0  0  0  0  0
   42.9470   41.0170   13.1735 H   0  0  0  0  0  0
   46.8774   41.5319   11.5486 H   0  0  0  0  0  0
   47.1338   39.6170   14.5907 H   0  0  0  0  0  0
   47.4345   40.8013   13.3388 H   0  0  0  0  0  0
   45.1800   38.9295   15.0069 H   0  0  0  0  0  0
   43.7548   39.4773   14.1531 H   0  0  0  0  0  0
   43.6449   45.9689    7.4541 H   0  0  0  0  0  0
   44.4512   47.1689    5.4275 H   0  0  0  0  0  0
   47.9677   44.7334    5.4399 H   0  0  0  0  0  0
   47.1984   43.5990    7.3918 H   0  0  0  0  0  0
   48.1989   46.6662    2.6466 H   0  0  0  0  0  0
   48.2480   45.3454    3.7928 H   0  0  0  0  0  0
   46.6635   48.3480    2.8765 H   0  0  0  0  0  0
   45.5373   48.2945    4.2140 H   0  0  0  0  0  0
  1  2  1  0  0  0
  1  8  1  0  0  0
  1 22  1  0  0  0
  2  3  2  0  0  0
  2 13  1  0  0  0
  3  9  1  0  0  0
  3 23  1  0  0  0
  4  5  2  0  0  0
  4  9  1  0  0  0
  4 24  1  0  0  0
  5  6  1  0  0  0
  5 25  1  0  0  0
  6  7  2  0  0  0
  6 10  1  0  0  0
  7  8  1  0  0  0
  7 26  1  0  0  0
  8  9  2  0  0  0
 10 11  2  0  0  0
 10 12  1  0  0  0
 11 27  1  0  0  0
 11 28  1  0  0  0
 12 29  1  0  0  0
 12 30  1  0  0  0
 13 14  2  0  0  0
 13 18  1  0  0  0
 14 15  1  0  0  0
 14 31  1  0  0  0
 15 16  2  0  0  0
 15 32  1  0  0  0
 16 17  1  0  0  0
 16 19  1  0  0  0
 17 18  2  0  0  0
 17 33  1  0  0  0
 18 34  1  0  0  0
 19 20  2  0  0  0
 19 21  1  0  0  0
 20 35  1  0  0  0
 20 36  1  0  0  0
 21 37  1  0  0  0
 21 38  1  0  0  0
M  CHG  2  11   1  20   1
M  END
> <s_pdb_PDB_format_version>
3.0

> <b_ppw_prepared>
1

> <s_ppw_prepared_with_version>
2021-1

> <s_ppw_het_states>
eJxNUUkSgzAM+0qGc9qJXJbQrzD8gOmtJ4a/104lgEMkG0eynb1D906Lf8iprDktRnwRe+JAHIkTsRJnIoqIK6IRSUKakCikCslCupAwpGyFgtZ6DRZdm2xyqirIya2MNGzBkWZSb2BgRX9lPTWSOk4siJSsp8uktnummWPcKzibCu9efyLQ9cjG+NAeYgWmXcQacAbqr2WrysK93IO2cI8e5en5vTPzt43gyOnz3bb/ua7HD8oLahg=

$$$$
