
                    3D
 Schrodinger Suite 2021-1.
 67 73  0  0  1  0            999 V2000
   -0.2220   -4.3490   -0.6990 O   0  0  0  0  0  0
   -1.3280   -4.7290   -1.0360 C   0  0  0  0  0  0
   -1.9240   -4.3370   -2.2300 N   0  0  0  0  0  0
   -3.1920   -4.7610   -2.6190 C   0  0  0  0  0  0
   -3.6560   -4.2820   -3.8200 N   0  0  0  0  0  0
   -3.9470   -5.5900   -1.8910 N   0  0  0  0  0  0
   -3.4100   -6.0370   -0.6780 C   0  0  0  0  0  0
   -2.1670   -5.6430   -0.2350 C   0  0  0  0  0  0
   -1.8790   -6.2080    0.9810 N   0  0  0  0  0  0
   -2.9450   -6.9430    1.2670 C   0  0  0  0  0  0
   -3.9170   -6.8940    0.2770 N   0  0  0  0  0  0
   -5.1850   -7.6520    0.3140 C   0  0  1  0  0  0
   -5.9060   -7.8460   -1.0270 C   0  0  2  0  0  0
   -7.2470   -8.2420   -0.7460 O   0  0  0  0  0  0
   -4.8260   -8.9930    0.7190 O   0  0  0  0  0  0
   -4.9090   -9.9170   -0.3860 C   0  0  2  0  0  0
   -3.6130  -10.7530   -0.4880 C   0  0  0  0  0  0
   -2.5730  -10.0300   -1.1610 O   0  0  0  0  0  0
   -1.3330  -10.8680   -1.7740 P   0  0  0  0  0  0
   -2.1100  -11.5960   -2.9890 O   0  0  0  0  0  0
   -0.2580   -9.9750   -2.2800 O   0  5  0  0  0  0
   -0.7820  -11.8430   -0.7970 O   0  0  0  0  0  0
   -5.1610   -9.0280   -1.6060 C   0  0  1  0  0  0
   -5.9670   -9.7130   -2.5740 O   0  0  0  0  0  0
   -6.2090   -9.0380   -4.0210 P   0  0  0  0  0  0
   -7.2930   -8.0200   -3.9920 O   0  0  0  0  0  0
   -6.4640  -10.0590   -5.0710 O   0  5  0  0  0  0
   -4.7550   -8.3620   -4.2300 O   0  0  0  0  0  0
   -3.6870   -9.0140   -4.9320 C   0  0  0  0  0  0
   -3.6160  -10.5070   -4.5550 C   0  0  1  0  0  0
   -4.0900  -11.3100   -5.6490 O   0  0  0  0  0  0
   -2.1770  -10.9720   -4.2790 C   0  0  2  0  0  0
   -1.8420  -11.9870   -5.3760 C   0  0  1  0  0  0
   -1.8490  -13.3110   -4.8460 O   0  0  0  0  0  0
   -2.9860  -11.8580   -6.3870 C   0  0  2  0  0  0
   -2.6820  -10.9510   -7.5010 N   0  0  0  0  0  0
   -3.2520  -10.9550   -8.7770 C   0  0  0  0  0  0
   -2.7480  -10.0150   -9.5830 N   0  0  0  0  0  0
   -1.8410   -9.4060   -8.7920 C   0  0  0  0  0  0
   -1.7620   -9.9350   -7.5130 C   0  0  0  0  0  0
   -0.9060   -9.4520   -6.5740 N   0  0  0  0  0  0
   -0.1110   -8.4100   -6.9400 C   0  0  0  0  0  0
   -0.1190   -7.8300   -8.1710 N   0  0  0  0  0  0
   -0.9850   -8.3270   -9.0990 C   0  0  0  0  0  0
   -0.9880   -7.7340  -10.3520 N   0  0  0  0  0  0
   -1.4341   -3.7173   -2.8593 H   0  0  0  0  0  0
   -4.5692   -4.5553   -4.1538 H   0  0  0  0  0  0
   -3.0839   -3.6566   -4.3692 H   0  0  0  0  0  0
   -2.9861   -7.4974    2.1929 H   0  0  0  0  0  0
   -5.8639   -7.2101    1.0433 H   0  0  0  0  0  0
   -5.8533   -6.9631   -1.6640 H   0  0  0  0  0  0
   -7.7225   -8.3707   -1.5700 H   0  0  0  0  0  0
   -5.7598  -10.5825   -0.2397 H   0  0  0  0  0  0
   -3.8193  -11.6777   -1.0270 H   0  0  0  0  0  0
   -3.2769  -11.0247    0.5127 H   0  0  0  0  0  0
   -4.2180   -8.7078   -2.0491 H   0  0  0  0  0  0
   -2.7417   -8.5316   -4.6836 H   0  0  0  0  0  0
   -3.8468   -8.9181   -6.0060 H   0  0  0  0  0  0
   -4.2328  -10.6900   -3.6751 H   0  0  0  0  0  0
   -1.4914  -10.1259   -4.3253 H   0  0  0  0  0  0
   -0.8830  -11.7575   -5.8404 H   0  0  0  0  0  0
   -1.6378  -13.9363   -5.5431 H   0  0  0  0  0  0
   -3.2512  -12.8422   -6.7731 H   0  0  0  0  0  0
   -4.0199  -11.6734   -9.0232 H   0  0  0  0  0  0
    0.5865   -7.9881   -6.2316 H   0  0  0  0  0  0
   -0.3657   -6.9628  -10.5472 H   0  0  0  0  0  0
   -1.6125   -8.0731  -11.0697 H   0  0  0  0  0  0
  1  2  2  0  0  0
  2  3  1  0  0  0
  2  8  1  0  0  0
  3  4  1  0  0  0
  3 46  1  0  0  0
  4  5  1  0  0  0
  4  6  2  0  0  0
  5 47  1  0  0  0
  5 48  1  0  0  0
  6  7  1  0  0  0
  7  8  2  0  0  0
  7 11  1  0  0  0
  8  9  1  0  0  0
  9 10  2  0  0  0
 10 11  1  0  0  0
 10 49  1  0  0  0
 11 12  1  0  0  0
 12 13  1  0  0  0
 12 15  1  0  0  0
 12 50  1  0  0  0
 13 14  1  0  0  0
 13 23  1  0  0  0
 13 51  1  0  0  0
 14 52  1  0  0  0
 15 16  1  0  0  0
 16 17  1  0  0  0
 16 23  1  0  0  0
 16 53  1  0  0  0
 17 18  1  0  0  0
 17 54  1  0  0  0
 17 55  1  0  0  0
 18 19  1  0  0  0
 19 20  1  0  0  0
 19 21  1  0  0  0
 19 22  2  0  0  0
 20 32  1  0  0  0
 23 24  1  0  0  0
 23 56  1  0  0  0
 24 25  1  0  0  0
 25 26  2  0  0  0
 25 27  1  0  0  0
 25 28  1  0  0  0
 28 29  1  0  0  0
 29 30  1  0  0  0
 29 57  1  0  0  0
 29 58  1  0  0  0
 30 31  1  0  0  0
 30 32  1  0  0  0
 30 59  1  0  0  0
 31 35  1  0  0  0
 32 33  1  0  0  0
 32 60  1  0  0  0
 33 34  1  0  0  0
 33 35  1  0  0  0
 33 61  1  0  0  0
 34 62  1  0  0  0
 35 36  1  0  0  0
 35 63  1  0  0  0
 36 37  1  0  0  0
 36 40  1  0  0  0
 37 38  2  0  0  0
 37 64  1  0  0  0
 38 39  1  0  0  0
 39 40  1  0  0  0
 39 44  2  0  0  0
 40 41  2  0  0  0
 41 42  1  0  0  0
 42 43  2  0  0  0
 42 65  1  0  0  0
 43 44  1  0  0  0
 44 45  1  0  0  0
 45 66  1  0  0  0
 45 67  1  0  0  0
M  CHG  2  21  -1  27  -1
M  END
> <i_pdb_PDB_Model>
1

> <s_pdb_PDB_format_version>
3.0

> <b_ppw_prepared>
1

> <s_ppw_prepared_with_version>
2021-1

> <s_ppw_het_states>
eJztlEtuwzAMRK9ieJ0G5ieW3KsEuUHQXVdB716OypGVIxRQFuEMTT3TksDXKuvnco+fXJbtcVnumtEyesZbxj1jyVgzHhlloyBRiBQyhVAhVYgVcoVgIVlJ1iB/SFNEK9FKtBKtRGvpy8hWso1sY9fWN4JoI9qINqKNXRvJRrKT7CQ7yd73mGRvZCicR9RpHklUSsqaMlKeMuLtlHsui1gyW9oyTYmTkTy7IyXiliUQvaYJpYGw0fC9LeuD0V6Gkp0GogzmLEOW39YEW4PA2Z9GRtN3KUqMjQKrbAdC2SiEcouaKeMTdgCh7ADC2AGEyWj4UmSN70HW+HEQ5qPpZSGMuwNhZTDeXxpZ4xFCGHuDOMtgPMuQxaVT3j5noxC4fMpb6P0mhfDWW7jtut+w1691jyGxXY+KhetBE49Wq+Mjlzdn6az+XJav7+fz77/d7zlw5sCZA2cOnDlw5sCZA2cOnP8+cOAAkWvd6v4+fh4/vxEnwqI=

$$$$
