@<TRIPOS>MOLECULE
MOL
   67    73     1     0     0
SMALL
bcc


@<TRIPOS>ATOM
      1 O1          -0.2220    -4.3490    -0.6990 o          1 MOL      -0.410500
      2 C1          -1.3280    -4.7290    -1.0360 c          1 MOL       0.648000
      3 N1          -1.9240    -4.3370    -2.2300 ns         1 MOL      -0.482400
      4 C2          -3.1920    -4.7610    -2.6190 cc         1 MOL       0.852800
      5 N2          -3.6560    -4.2820    -3.8200 nv         1 MOL      -0.799800
      6 N3          -3.9470    -5.5900    -1.8910 nd         1 MOL      -0.485100
      7 C3          -3.4100    -6.0370    -0.6780 cd         1 MOL       0.183800
      8 C4          -2.1670    -5.6430    -0.2350 cc         1 MOL       0.533800
      9 N4          -1.8790    -6.2080     0.9810 nc         1 MOL      -0.569000
     10 C5          -2.9450    -6.9430     1.2670 cd         1 MOL       0.709400
     11 N5          -3.9170    -6.8940     0.2770 na         1 MOL      -0.209900
     12 C6          -5.1850    -7.6520     0.3140 c3         1 MOL       0.185800
     13 C7          -5.9060    -7.8460    -1.0270 c3         1 MOL       0.115100
     14 O2          -7.2470    -8.2420    -0.7460 oh         1 MOL      -0.547800
     15 O3          -4.8260    -8.9930     0.7190 os         1 MOL      -0.400600
     16 C8          -4.9090    -9.9170    -0.3860 c3         1 MOL       0.078100
     17 C9          -3.6130   -10.7530    -0.4880 c3         1 MOL       0.195400
     18 O4          -2.5730   -10.0300    -1.1610 os         1 MOL      -0.631200
     19 P1          -1.3330   -10.8680    -1.7740 p5         1 MOL       1.509800
     20 O5          -2.1100   -11.5960    -2.9890 os         1 MOL      -0.549200
     21 O6          -0.2580    -9.9750    -2.2800 o          1 MOL      -0.823500
     22 O7          -0.7820   -11.8430    -0.7970 o          1 MOL      -0.823500
     23 C10         -5.1610    -9.0280    -1.6060 c3         1 MOL       0.119100
     24 O8          -5.9670    -9.7130    -2.5740 os         1 MOL      -0.548200
     25 P2          -6.2090    -9.0380    -4.0210 p5         1 MOL       1.537800
     26 O9          -7.2930    -8.0200    -3.9920 o          1 MOL      -0.863500
     27 O10         -6.4640   -10.0590    -5.0710 o          1 MOL      -0.863500
     28 O11         -4.7550    -8.3620    -4.2300 os         1 MOL      -0.643200
     29 C11         -3.6870    -9.0140    -4.9320 c3         1 MOL       0.163400
     30 C12         -3.6160   -10.5070    -4.5550 c3         1 MOL       0.075100
     31 O12         -4.0900   -11.3100    -5.6490 os         1 MOL      -0.394600
     32 C13         -2.1770   -10.9720    -4.2790 c3         1 MOL       0.143100
     33 C14         -1.8420   -11.9870    -5.3760 c3         1 MOL       0.130100
     34 O13         -1.8490   -13.3110    -4.8460 oh         1 MOL      -0.569800
     35 C15         -2.9860   -11.8580    -6.3870 c3         1 MOL       0.203800
     36 N6          -2.6820   -10.9510    -7.5010 na         1 MOL      -0.212000
     37 C16         -3.2520   -10.9550    -8.7770 cc         1 MOL       0.697700
     38 N7          -2.7480   -10.0150    -9.5830 nd         1 MOL      -0.451100
     39 C17         -1.8410    -9.4060    -8.7920 ca         1 MOL       0.015800
     40 C18         -1.7620    -9.9350    -7.5130 ca         1 MOL       0.477800
     41 N8          -0.9060    -9.4520    -6.5740 nb         1 MOL      -0.589000
     42 C19         -0.1110    -8.4100    -6.9400 ca         1 MOL       0.779900
     43 N9          -0.1190    -7.8300    -8.1710 nb         1 MOL      -0.692000
     44 C20         -0.9850    -8.3270    -9.0990 ca         1 MOL       0.868200
     45 N10         -0.9880    -7.7340   -10.3520 nv         1 MOL      -0.698500
     46 H1          -1.4340    -3.7170    -2.8590 hn         1 MOL       0.375500
     47 H2          -4.5690    -4.5550    -4.1540 hn         1 MOL       0.516300
     48 H3          -3.0840    -3.6570    -4.3690 hn         1 MOL       0.516300
     49 H4          -2.9860    -7.4970     2.1930 h5         1 MOL       0.148100
     50 H5          -5.8640    -7.2100     1.0430 h2         1 MOL       0.161700
     51 H6          -5.8530    -6.9630    -1.6640 h1         1 MOL       0.125700
     52 H7          -7.7230    -8.3710    -1.5700 ho         1 MOL       0.439000
     53 H8          -5.7600   -10.5820    -0.2400 h1         1 MOL       0.118700
     54 H9          -3.8190   -11.6780    -1.0270 h1         1 MOL       0.058200
     55 H10         -3.2770   -11.0250     0.5130 h1         1 MOL       0.058200
     56 H11         -4.2180    -8.7080    -2.0490 h1         1 MOL       0.108700
     57 H12         -2.7420    -8.5320    -4.6840 h1         1 MOL       0.074700
     58 H13         -3.8470    -8.9180    -6.0060 h1         1 MOL       0.074700
     59 H14         -4.2330   -10.6900    -3.6750 h1         1 MOL       0.138700
     60 H15         -1.4910   -10.1260    -4.3250 h1         1 MOL       0.094700
     61 H16         -0.8830   -11.7580    -5.8400 h1         1 MOL       0.094700
     62 H17         -1.6380   -13.9360    -5.5430 ho         1 MOL       0.458000
     63 H18         -3.2510   -12.8420    -6.7730 h2         1 MOL       0.159700
     64 H19         -4.0200   -11.6730    -9.0230 h5         1 MOL       0.160800
     65 H20          0.5870    -7.9880    -6.2320 h5         1 MOL       0.123100
     66 H21         -0.3660    -6.9630   -10.5470 hn         1 MOL       0.514800
     67 H22         -1.6130    -8.0730   -11.0700 hn         1 MOL       0.514800
@<TRIPOS>BOND
     1     1     2 2   
     2     2     3 1   
     3     2     8 1   
     4     3     4 1   
     5     3    46 1   
     6     4     5 1   
     7     4     6 2   
     8     5    47 1   
     9     5    48 1   
    10     6     7 1   
    11     7     8 2   
    12     7    11 1   
    13     8     9 1   
    14     9    10 2   
    15    10    11 1   
    16    10    49 1   
    17    11    12 1   
    18    12    13 1   
    19    12    15 1   
    20    12    50 1   
    21    13    14 1   
    22    13    23 1   
    23    13    51 1   
    24    14    52 1   
    25    15    16 1   
    26    16    17 1   
    27    16    23 1   
    28    16    53 1   
    29    17    18 1   
    30    17    54 1   
    31    17    55 1   
    32    18    19 1   
    33    19    20 1   
    34    19    21 1   
    35    19    22 1   
    36    20    32 1   
    37    23    24 1   
    38    23    56 1   
    39    24    25 1   
    40    25    26 1   
    41    25    27 1   
    42    25    28 1   
    43    28    29 1   
    44    29    30 1   
    45    29    57 1   
    46    29    58 1   
    47    30    31 1   
    48    30    32 1   
    49    30    59 1   
    50    31    35 1   
    51    32    33 1   
    52    32    60 1   
    53    33    34 1   
    54    33    35 1   
    55    33    61 1   
    56    34    62 1   
    57    35    36 1   
    58    35    63 1   
    59    36    37 1   
    60    36    40 1   
    61    37    38 2   
    62    37    64 1   
    63    38    39 1   
    64    39    40 ar  
    65    39    44 ar  
    66    40    41 ar  
    67    41    42 ar  
    68    42    43 ar  
    69    42    65 1   
    70    43    44 ar  
    71    44    45 1   
    72    45    66 1   
    73    45    67 1   
@<TRIPOS>SUBSTRUCTURE
     1 MOL         1 TEMP              0 ****  ****    0 ROOT
