@<TRIPOS>MOLECULE
MOL
  115   122     1     0     0
SMALL
bcc


@<TRIPOS>ATOM
      1 C1          -4.5580    -3.6030     4.2390 ca         1 MOL      -0.059500
      2 C2          -5.9540    -3.7100     4.2910 ca         1 MOL      -0.091000
      3 C3          -6.6770    -3.8660     3.1020 ca         1 MOL      -0.061500
      4 C4          -6.0010    -3.8900     1.8710 ca         1 MOL      -0.103000
      5 N1          -3.7990    -3.8170     0.6670 na         1 MOL      -0.073200
      6 C5          -4.3240    -3.6860    -0.7130 c3         1 MOL      -0.007900
      7 C6          -2.4970    -3.9520     1.0350 cc         1 MOL       0.256000
      8 C7          -1.4460    -4.2060     0.0370 ce         1 MOL      -0.339600
      9 S1          -2.2210    -3.8110     2.6570 ss         1 MOL       0.195900
     10 C8          -3.8770    -3.7170     3.0060 ca         1 MOL      -0.135600
     11 C9          -4.5890    -3.8190     1.8060 ca         1 MOL      -0.042200
     12 C10          2.2290    -4.6370    -0.8130 ca         1 MOL       0.080500
     13 C11          3.0730    -4.8960    -1.9180 ca         1 MOL      -0.192500
     14 C12          2.5080    -5.1520    -3.1640 ca         1 MOL      -0.054000
     15 C13          1.1830    -4.8020    -3.4130 ca         1 MOL      -0.126500
     16 C14          0.3350    -4.4780    -2.3410 ca         1 MOL      -0.062000
     17 C15          0.8190    -4.5180    -1.0080 ca         1 MOL      -0.093000
     18 C16         -0.0450    -4.4510     0.1350 cd         1 MOL       0.131500
     19 C17          0.5500    -4.6490     1.3940 cd         1 MOL      -0.245500
     20 C18          1.9270    -4.5830     1.5430 cc         1 MOL       0.031500
     21 N2           2.7520    -4.5260     0.4740 na         1 MOL      -0.363200
     22 C19          4.1500    -4.4050     0.9250 c3         1 MOL       0.222300
     23 C20          5.0840    -3.2850     0.4730 c3         1 MOL      -0.126400
     24 C21          6.3020    -3.2520     1.4270 c3         1 MOL       0.111300
     25 N3           7.1430    -2.0220     1.3820 n4         1 MOL      -0.604800
     26 C22          6.2950    -0.8280     1.6780 c3         1 MOL       0.114800
     27 C23          7.0560     0.4240     2.1490 c3         1 MOL      -0.121400
     28 C24          7.7880    -1.9010     0.0560 c3         1 MOL       0.081850
     29 C25          8.2130    -2.1890     2.4000 c3         1 MOL       0.081850
     30 C26         -1.5760     4.7040    -5.8520 ca         1 MOL      -0.059500
     31 C27         -2.7120     4.7390    -6.6710 ca         1 MOL      -0.091000
     32 C28         -3.9770     4.8810    -6.0870 ca         1 MOL      -0.061500
     33 C29         -4.0990     4.9340    -4.6900 ca         1 MOL      -0.103000
     34 N4          -2.9330     4.9120    -2.4620 na         1 MOL      -0.073200
     35 C30         -4.1310     4.7790    -1.5930 c3         1 MOL      -0.007900
     36 C31         -1.6450     5.0440    -2.0460 cc         1 MOL       0.256000
     37 C32         -1.3260     5.1750    -0.6170 ce         1 MOL      -0.339600
     38 S2          -0.5170     5.0450    -3.2500 ss         1 MOL       0.195900
     39 C33         -1.6980     4.8620    -4.4530 ca         1 MOL      -0.135600
     40 C34         -2.9600     4.9190    -3.8490 ca         1 MOL      -0.042200
     41 C35          1.1580     5.7840     2.1560 ca         1 MOL       0.080500
     42 C36          1.2310     6.4260     3.4040 ca         1 MOL      -0.192500
     43 C37          0.0860     6.6360     4.1640 ca         1 MOL      -0.054000
     44 C38         -1.1580     6.3060     3.6230 ca         1 MOL      -0.126500
     45 C39         -1.2600     5.8950     2.2780 ca         1 MOL      -0.062000
     46 C40         -0.0930     5.6360     1.5050 ca         1 MOL      -0.093000
     47 C41         -0.1140     5.2340     0.1300 cd         1 MOL       0.131500
     48 C42          1.1180     4.8860    -0.4700 cd         1 MOL      -0.245500
     49 C43          2.3090     4.8990     0.2650 cc         1 MOL       0.031500
     50 N5           2.3190     5.3070     1.5670 na         1 MOL      -0.363200
     51 C44          3.6210     5.2150     2.2580 c3         1 MOL       0.222300
     52 C45          4.4570     3.9570     1.9810 c3         1 MOL      -0.126400
     53 C46          5.5460     3.8520     3.0540 c3         1 MOL       0.111300
     54 N6           6.6360     2.8740     2.7670 n4         1 MOL      -0.604800
     55 C47          6.0470     1.5700     2.3410 c3         1 MOL       0.114800
     56 C48          7.4110     2.7250     4.0270 c3         1 MOL       0.081850
     57 C49          7.5400     3.4170     1.7190 c3         1 MOL       0.081850
     58 H1          -3.9950    -3.4320     5.1450 ha         1 MOL       0.162500
     59 H2          -6.4630    -3.6720     5.2420 ha         1 MOL       0.177000
     60 H3          -7.7520    -3.9670     3.1330 ha         1 MOL       0.180000
     61 H4          -6.5590    -3.9640     0.9500 ha         1 MOL       0.170500
     62 H5          -5.4100    -3.5940    -0.6820 h1         1 MOL       0.090367
     63 H6          -3.8980    -2.7990    -1.1820 h1         1 MOL       0.090367
     64 H7          -4.0510    -4.5680    -1.2920 h1         1 MOL       0.090367
     65 H8          -1.6940    -4.2300    -1.0140 ha         1 MOL       0.166500
     66 H9           4.1450    -4.8940    -1.7900 ha         1 MOL       0.119000
     67 H10          3.0970    -5.6220    -3.9380 ha         1 MOL       0.161500
     68 H11          0.8110    -4.7800    -4.4270 ha         1 MOL       0.174500
     69 H12         -0.6910    -4.1970    -2.5300 ha         1 MOL       0.155000
     70 H13         -0.0670    -4.8550     2.2560 ha         1 MOL       0.161000
     71 H14          2.3640    -4.5760     2.5310 h4         1 MOL       0.152000
     72 H15          4.6500    -5.3600     0.7650 h1         1 MOL       0.074450
     73 H16          4.1690    -4.4550     2.0140 h1         1 MOL       0.074450
     74 H17          4.5580    -2.3320     0.5230 hc         1 MOL       0.075950
     75 H18          5.4240    -3.4840    -0.5430 hc         1 MOL       0.075950
     76 H19          6.9290    -4.1230     1.2390 hx         1 MOL       0.112200
     77 H20          5.9620    -3.4180     2.4490 hx         1 MOL       0.112200
     78 H21          5.5450    -1.0950     2.4220 hx         1 MOL       0.107450
     79 H22          5.7030    -0.5800     0.7970 hx         1 MOL       0.107450
     80 H23          7.7890     0.7090     1.3940 hc         1 MOL       0.086200
     81 H24          7.5500     0.2130     3.0970 hc         1 MOL       0.086200
     82 H25          8.4010    -1.0000     0.0300 hx         1 MOL       0.109450
     83 H26          8.4170    -2.7730    -0.1240 hx         1 MOL       0.109450
     84 H27          7.0220    -1.8410    -0.7170 hx         1 MOL       0.109450
     85 H28          8.8550    -1.3080     2.4010 hx         1 MOL       0.109450
     86 H29          7.7620    -2.3110     3.3850 hx         1 MOL       0.109450
     87 H30          8.8080    -3.0710     2.1610 hx         1 MOL       0.109450
     88 H31         -0.6000     4.5560    -6.2890 ha         1 MOL       0.162500
     89 H32         -2.6080     4.6570    -7.7430 ha         1 MOL       0.177000
     90 H33         -4.8560     4.9490    -6.7120 ha         1 MOL       0.180000
     91 H34         -5.0770     4.9880    -4.2350 ha         1 MOL       0.170500
     92 H35         -5.0230     4.6900    -2.2140 h1         1 MOL       0.090367
     93 H36         -4.0320     3.8900    -0.9710 h1         1 MOL       0.090367
     94 H37         -4.2180     5.6590    -0.9560 h1         1 MOL       0.090367
     95 H38         -2.1220     5.2500     0.1090 ha         1 MOL       0.166500
     96 H39          2.1850     6.7630     3.7830 ha         1 MOL       0.119000
     97 H40          0.1660     7.0490     5.1590 ha         1 MOL       0.161500
     98 H41         -2.0460     6.3650     4.2350 ha         1 MOL       0.174500
     99 H42         -2.2320     5.7730     1.8230 ha         1 MOL       0.155000
    100 H43          1.1510     4.6040    -1.5120 ha         1 MOL       0.161000
    101 H44          3.2330     4.5840    -0.1980 h4         1 MOL       0.152000
    102 H45          3.4650     5.3130     3.3320 h1         1 MOL       0.074450
    103 H46          4.2150     6.0990     2.0250 h1         1 MOL       0.074450
    104 H47          4.9220     4.0390     0.9990 hc         1 MOL       0.075950
    105 H48          3.8150     3.0770     2.0280 hc         1 MOL       0.075950
    106 H49          5.0860     3.6080     4.0110 hx         1 MOL       0.112200
    107 H50          5.9810     4.8370     3.2230 hx         1 MOL       0.112200
    108 H51          5.2880     1.2650     3.0620 hx         1 MOL       0.107450
    109 H52          5.4840     1.7130     1.4180 hx         1 MOL       0.107450
    110 H53          8.2250     2.0170     3.8720 hx         1 MOL       0.109450
    111 H54          7.8220     3.6920     4.3180 hx         1 MOL       0.109450
    112 H55          6.7550     2.3570     4.8160 hx         1 MOL       0.109450
    113 H56          8.3330     2.6980     1.5140 hx         1 MOL       0.109450
    114 H57          6.9720     3.5990     0.8070 hx         1 MOL       0.109450
    115 H58          7.9790     4.3520     2.0660 hx         1 MOL       0.109450
@<TRIPOS>BOND
     1     1     2 ar  
     2     1    10 ar  
     3     1    58 1   
     4     2     3 ar  
     5     2    59 1   
     6     3     4 ar  
     7     3    60 1   
     8     4    11 ar  
     9     4    61 1   
    10     5     6 1   
    11     5     7 2   
    12     5    11 1   
    13     6    62 1   
    14     6    63 1   
    15     6    64 1   
    16     7     8 1   
    17     7     9 1   
    18     8    18 2   
    19     8    65 1   
    20     9    10 1   
    21    10    11 ar  
    22    12    13 ar  
    23    12    17 ar  
    24    12    21 1   
    25    13    14 ar  
    26    13    66 1   
    27    14    15 ar  
    28    14    67 1   
    29    15    16 ar  
    30    15    68 1   
    31    16    17 ar  
    32    16    69 1   
    33    17    18 1   
    34    18    19 1   
    35    19    20 2   
    36    19    70 1   
    37    20    21 1   
    38    20    71 1   
    39    21    22 1   
    40    22    23 1   
    41    22    72 1   
    42    22    73 1   
    43    23    24 1   
    44    23    74 1   
    45    23    75 1   
    46    24    25 1   
    47    24    76 1   
    48    24    77 1   
    49    25    26 1   
    50    25    28 1   
    51    25    29 1   
    52    26    27 1   
    53    26    78 1   
    54    26    79 1   
    55    27    55 1   
    56    27    80 1   
    57    27    81 1   
    58    28    82 1   
    59    28    83 1   
    60    28    84 1   
    61    29    85 1   
    62    29    86 1   
    63    29    87 1   
    64    30    31 ar  
    65    30    39 ar  
    66    30    88 1   
    67    31    32 ar  
    68    31    89 1   
    69    32    33 ar  
    70    32    90 1   
    71    33    40 ar  
    72    33    91 1   
    73    34    35 1   
    74    34    36 2   
    75    34    40 1   
    76    35    92 1   
    77    35    93 1   
    78    35    94 1   
    79    36    37 1   
    80    36    38 1   
    81    37    47 2   
    82    37    95 1   
    83    38    39 1   
    84    39    40 ar  
    85    41    42 ar  
    86    41    46 ar  
    87    41    50 1   
    88    42    43 ar  
    89    42    96 1   
    90    43    44 ar  
    91    43    97 1   
    92    44    45 ar  
    93    44    98 1   
    94    45    46 ar  
    95    45    99 1   
    96    46    47 1   
    97    47    48 1   
    98    48    49 2   
    99    48   100 1   
   100    49    50 1   
   101    49   101 1   
   102    50    51 1   
   103    51    52 1   
   104    51   102 1   
   105    51   103 1   
   106    52    53 1   
   107    52   104 1   
   108    52   105 1   
   109    53    54 1   
   110    53   106 1   
   111    53   107 1   
   112    54    55 1   
   113    54    56 1   
   114    54    57 1   
   115    55   108 1   
   116    55   109 1   
   117    56   110 1   
   118    56   111 1   
   119    56   112 1   
   120    57   113 1   
   121    57   114 1   
   122    57   115 1   
@<TRIPOS>SUBSTRUCTURE
     1 MOL         1 TEMP              0 ****  ****    0 ROOT
