
                    3D
 Schrodinger Suite 2021-1.
115122  0  0  1  0            999 V2000
   -4.5580   -3.6030    4.2390 C   0  0  0  0  0  0
   -5.9540   -3.7100    4.2910 C   0  0  0  0  0  0
   -6.6770   -3.8660    3.1020 C   0  0  0  0  0  0
   -6.0010   -3.8900    1.8710 C   0  0  0  0  0  0
   -3.7990   -3.8170    0.6670 N   0  0  0  0  0  0
   -4.3240   -3.6860   -0.7130 C   0  0  0  0  0  0
   -2.4970   -3.9520    1.0350 C   0  0  0  0  0  0
   -1.4460   -4.2060    0.0370 C   0  0  0  0  0  0
   -2.2210   -3.8110    2.6570 S   0  0  0  0  0  0
   -3.8770   -3.7170    3.0060 C   0  0  0  0  0  0
   -4.5890   -3.8190    1.8060 C   0  0  0  0  0  0
    2.2290   -4.6370   -0.8130 C   0  0  0  0  0  0
    3.0730   -4.8960   -1.9180 C   0  0  0  0  0  0
    2.5080   -5.1520   -3.1640 C   0  0  0  0  0  0
    1.1830   -4.8020   -3.4130 C   0  0  0  0  0  0
    0.3350   -4.4780   -2.3410 C   0  0  0  0  0  0
    0.8190   -4.5180   -1.0080 C   0  0  0  0  0  0
   -0.0450   -4.4510    0.1350 C   0  0  0  0  0  0
    0.5500   -4.6490    1.3940 C   0  0  0  0  0  0
    1.9270   -4.5830    1.5430 C   0  0  0  0  0  0
    2.7520   -4.5260    0.4740 N   0  3  0  0  0  0
    4.1500   -4.4050    0.9250 C   0  0  0  0  0  0
    5.0840   -3.2850    0.4730 C   0  0  0  0  0  0
    6.3020   -3.2520    1.4270 C   0  0  0  0  0  0
    7.1430   -2.0220    1.3820 N   0  3  0  0  0  0
    6.2950   -0.8280    1.6780 C   0  0  0  0  0  0
    7.0560    0.4240    2.1490 C   0  0  0  0  0  0
    7.7880   -1.9010    0.0560 C   0  0  0  0  0  0
    8.2130   -2.1890    2.4000 C   0  0  0  0  0  0
   -1.5760    4.7040   -5.8520 C   0  0  0  0  0  0
   -2.7120    4.7390   -6.6710 C   0  0  0  0  0  0
   -3.9770    4.8810   -6.0870 C   0  0  0  0  0  0
   -4.0990    4.9340   -4.6900 C   0  0  0  0  0  0
   -2.9330    4.9120   -2.4620 N   0  0  0  0  0  0
   -4.1310    4.7790   -1.5930 C   0  0  0  0  0  0
   -1.6450    5.0440   -2.0460 C   0  0  0  0  0  0
   -1.3260    5.1750   -0.6170 C   0  0  0  0  0  0
   -0.5170    5.0450   -3.2500 S   0  0  0  0  0  0
   -1.6980    4.8620   -4.4530 C   0  0  0  0  0  0
   -2.9600    4.9190   -3.8490 C   0  0  0  0  0  0
    1.1580    5.7840    2.1560 C   0  0  0  0  0  0
    1.2310    6.4260    3.4040 C   0  0  0  0  0  0
    0.0860    6.6360    4.1640 C   0  0  0  0  0  0
   -1.1580    6.3060    3.6230 C   0  0  0  0  0  0
   -1.2600    5.8950    2.2780 C   0  0  0  0  0  0
   -0.0930    5.6360    1.5050 C   0  0  0  0  0  0
   -0.1140    5.2340    0.1300 C   0  0  0  0  0  0
    1.1180    4.8860   -0.4700 C   0  0  0  0  0  0
    2.3090    4.8990    0.2650 C   0  0  0  0  0  0
    2.3190    5.3070    1.5670 N   0  3  0  0  0  0
    3.6210    5.2150    2.2580 C   0  0  0  0  0  0
    4.4570    3.9570    1.9810 C   0  0  0  0  0  0
    5.5460    3.8520    3.0540 C   0  0  0  0  0  0
    6.6360    2.8740    2.7670 N   0  3  0  0  0  0
    6.0470    1.5700    2.3410 C   0  0  0  0  0  0
    7.4110    2.7250    4.0270 C   0  0  0  0  0  0
    7.5400    3.4170    1.7190 C   0  0  0  0  0  0
   -3.9954   -3.4323    5.1449 H   0  0  0  0  0  0
   -6.4634   -3.6719    5.2425 H   0  0  0  0  0  0
   -7.7518   -3.9675    3.1329 H   0  0  0  0  0  0
   -6.5595   -3.9639    0.9496 H   0  0  0  0  0  0
   -5.4097   -3.5944   -0.6821 H   0  0  0  0  0  0
   -3.8983   -2.7987   -1.1816 H   0  0  0  0  0  0
   -4.0506   -4.5684   -1.2916 H   0  0  0  0  0  0
   -1.6938   -4.2304   -1.0139 H   0  0  0  0  0  0
    4.1454   -4.8939   -1.7905 H   0  0  0  0  0  0
    3.0970   -5.6220   -3.9377 H   0  0  0  0  0  0
    0.8115   -4.7805   -4.4269 H   0  0  0  0  0  0
   -0.6906   -4.1968   -2.5296 H   0  0  0  0  0  0
   -0.0667   -4.8547    2.2564 H   0  0  0  0  0  0
    2.3636   -4.5763    2.5308 H   0  0  0  0  0  0
    4.6503   -5.3601    0.7651 H   0  0  0  0  0  0
    4.1692   -4.4549    2.0137 H   0  0  0  0  0  0
    4.5581   -2.3316    0.5227 H   0  0  0  0  0  0
    5.4242   -3.4840   -0.5432 H   0  0  0  0  0  0
    6.9294   -4.1232    1.2389 H   0  0  0  0  0  0
    5.9622   -3.4176    2.4493 H   0  0  0  0  0  0
    5.5448   -1.0947    2.4224 H   0  0  0  0  0  0
    5.7030   -0.5795    0.7972 H   0  0  0  0  0  0
    7.7892    0.7085    1.3943 H   0  0  0  0  0  0
    7.5504    0.2130    3.0972 H   0  0  0  0  0  0
    8.4009   -1.0000    0.0304 H   0  0  0  0  0  0
    8.4170   -2.7729   -0.1236 H   0  0  0  0  0  0
    7.0220   -1.8408   -0.7171 H   0  0  0  0  0  0
    8.8547   -1.3079    2.4013 H   0  0  0  0  0  0
    7.7623   -2.3111    3.3849 H   0  0  0  0  0  0
    8.8078   -3.0707    2.1614 H   0  0  0  0  0  0
   -0.5996    4.5556   -6.2890 H   0  0  0  0  0  0
   -2.6077    4.6568   -7.7428 H   0  0  0  0  0  0
   -4.8555    4.9494   -6.7115 H   0  0  0  0  0  0
   -5.0770    4.9876   -4.2350 H   0  0  0  0  0  0
   -5.0227    4.6903   -2.2136 H   0  0  0  0  0  0
   -4.0322    3.8896   -0.9707 H   0  0  0  0  0  0
   -4.2182    5.6594   -0.9563 H   0  0  0  0  0  0
   -2.1218    5.2503    0.1092 H   0  0  0  0  0  0
    2.1846    6.7627    3.7831 H   0  0  0  0  0  0
    0.1663    7.0492    5.1586 H   0  0  0  0  0  0
   -2.0459    6.3651    4.2350 H   0  0  0  0  0  0
   -2.2318    5.7733    1.8227 H   0  0  0  0  0  0
    1.1506    4.6041   -1.5121 H   0  0  0  0  0  0
    3.2326    4.5840   -0.1978 H   0  0  0  0  0  0
    3.4650    5.3130    3.3323 H   0  0  0  0  0  0
    4.2145    6.0990    2.0247 H   0  0  0  0  0  0
    4.9221    4.0393    0.9986 H   0  0  0  0  0  0
    3.8153    3.0772    2.0278 H   0  0  0  0  0  0
    5.0859    3.6078    4.0115 H   0  0  0  0  0  0
    5.9812    4.8370    3.2231 H   0  0  0  0  0  0
    5.2881    1.2649    3.0615 H   0  0  0  0  0  0
    5.4844    1.7130    1.4184 H   0  0  0  0  0  0
    8.2249    2.0168    3.8719 H   0  0  0  0  0  0
    7.8218    3.6918    4.3180 H   0  0  0  0  0  0
    6.7553    2.3570    4.8161 H   0  0  0  0  0  0
    8.3332    2.6979    1.5145 H   0  0  0  0  0  0
    6.9716    3.5993    0.8070 H   0  0  0  0  0  0
    7.9789    4.3524    2.0661 H   0  0  0  0  0  0
  1  2  2  0  0  0
  1 10  1  0  0  0
  1 58  1  0  0  0
  2  3  1  0  0  0
  2 59  1  0  0  0
  3  4  2  0  0  0
  3 60  1  0  0  0
  4 11  1  0  0  0
  4 61  1  0  0  0
  5  6  1  0  0  0
  5  7  1  0  0  0
  5 11  1  0  0  0
  6 62  1  0  0  0
  6 63  1  0  0  0
  6 64  1  0  0  0
  7  8  2  0  0  0
  7  9  1  0  0  0
  8 18  1  0  0  0
  8 65  1  0  0  0
  9 10  1  0  0  0
 10 11  2  0  0  0
 12 13  1  0  0  0
 12 17  1  0  0  0
 12 21  2  0  0  0
 13 14  2  0  0  0
 13 66  1  0  0  0
 14 15  1  0  0  0
 14 67  1  0  0  0
 15 16  2  0  0  0
 15 68  1  0  0  0
 16 17  1  0  0  0
 16 69  1  0  0  0
 17 18  2  0  0  0
 18 19  1  0  0  0
 19 20  2  0  0  0
 19 70  1  0  0  0
 20 21  1  0  0  0
 20 71  1  0  0  0
 21 22  1  0  0  0
 22 23  1  0  0  0
 22 72  1  0  0  0
 22 73  1  0  0  0
 23 24  1  0  0  0
 23 74  1  0  0  0
 23 75  1  0  0  0
 24 25  1  0  0  0
 24 76  1  0  0  0
 24 77  1  0  0  0
 25 26  1  0  0  0
 25 28  1  0  0  0
 25 29  1  0  0  0
 26 27  1  0  0  0
 26 78  1  0  0  0
 26 79  1  0  0  0
 27 55  1  0  0  0
 27 80  1  0  0  0
 27 81  1  0  0  0
 28 82  1  0  0  0
 28 83  1  0  0  0
 28 84  1  0  0  0
 29 85  1  0  0  0
 29 86  1  0  0  0
 29 87  1  0  0  0
 30 31  2  0  0  0
 30 39  1  0  0  0
 30 88  1  0  0  0
 31 32  1  0  0  0
 31 89  1  0  0  0
 32 33  2  0  0  0
 32 90  1  0  0  0
 33 40  1  0  0  0
 33 91  1  0  0  0
 34 35  1  0  0  0
 34 36  1  0  0  0
 34 40  1  0  0  0
 35 92  1  0  0  0
 35 93  1  0  0  0
 35 94  1  0  0  0
 36 37  2  0  0  0
 36 38  1  0  0  0
 37 47  1  0  0  0
 37 95  1  0  0  0
 38 39  1  0  0  0
 39 40  2  0  0  0
 41 42  1  0  0  0
 41 46  1  0  0  0
 41 50  2  0  0  0
 42 43  2  0  0  0
 42 96  1  0  0  0
 43 44  1  0  0  0
 43 97  1  0  0  0
 44 45  2  0  0  0
 44 98  1  0  0  0
 45 46  1  0  0  0
 45 99  1  0  0  0
 46 47  2  0  0  0
 47 48  1  0  0  0
 48 49  2  0  0  0
 48100  1  0  0  0
 49 50  1  0  0  0
 49101  1  0  0  0
 50 51  1  0  0  0
 51 52  1  0  0  0
 51102  1  0  0  0
 51103  1  0  0  0
 52 53  1  0  0  0
 52104  1  0  0  0
 52105  1  0  0  0
 53 54  1  0  0  0
 53106  1  0  0  0
 53107  1  0  0  0
 54 55  1  0  0  0
 54 56  1  0  0  0
 54 57  1  0  0  0
 55108  1  0  0  0
 55109  1  0  0  0
 56110  1  0  0  0
 56111  1  0  0  0
 56112  1  0  0  0
 57113  1  0  0  0
 57114  1  0  0  0
 57115  1  0  0  0
M  CHG  4  21   1  25   1  50   1  54   1
M  END
> <i_pdb_PDB_Model>
1

> <s_pdb_PDB_format_version>
3.0

> <b_ppw_prepared>
1

> <s_ppw_prepared_with_version>
2021-1

> <s_ppw_het_states>
eJxNk01ywjAMRq+SYU070Y8d6FUYbsB01xXD3Ss5frZZoE9Cef5Q5PdFLj/bIz5y3fbndXtoj9aj91h6rD0ePd56vPcoOwKigBSYAlSgCliBK4AFskLWIEsTkBWyQtZCD2SFrJAVskE2PNsYA2SDbHg2yAbZIBtkh+yQHbKPCUN2yA7ZITtkh1z2/gcL5AK5QC5OD+QCuTRyqnzz8aS2WUc/3KhZlxG9dySR8Qe0TnlMOTqidusPhrz3apTy7Upfm3FiE4KVOF8w0JJjSXS0ZQvmUggvvonKL3UFHKcBZc8EZylyzZR9m6uWB+qyd4q3FMqgU8zVC6F1TW5rwqHZonhLUQDkXhr/tCU8k1XDTorcU2VhnYnm0lpZk7oksy2qucQ6Eoxm1fGW1engfgKU7XbstKQuSRlt0eIYTeHMLUWuv3IPJqCeDpT74HhLkddBuRfzSoQoY0vTAd5SFN5cinlFfBl8S+qatBlE9rV/B/z9uW6/f6/X+f18fv4B23MYoA==

$$$$
