@<TRIPOS>MOLECULE
MOL
   45    46     1     0     0
SMALL
bcc


@<TRIPOS>ATOM
      1 C1          10.3140    24.9350     5.8720 ca         1 MOL       0.202100
      2 C2          11.3540    24.1310     5.4990 ca         1 MOL      -0.179750
      3 C3          12.1040    24.4320     4.3480 ca         1 MOL      -0.039000
      4 C4          11.8310    25.5280     3.5350 ca         1 MOL      -0.303900
      5 C5          10.7650    26.3460     3.9270 ca         1 MOL      -0.039000
      6 C6          10.0320    26.0390     5.0750 ca         1 MOL      -0.179750
      7 C7          12.5250    25.7170     2.3120 ce         1 MOL       0.527400
      8 N1          13.4920    24.8760     1.9930 nv         1 MOL      -0.470100
      9 N2          12.1660    26.6910     1.4310 nv         1 MOL      -0.454200
     10 C8           8.2420    21.3980    11.5770 ca         1 MOL       0.202100
     11 C9           9.5270    20.9640    11.7560 ca         1 MOL      -0.179750
     12 C10          9.8650    20.2340    12.8950 ca         1 MOL      -0.039000
     13 C11          8.9630    19.8820    13.8900 ca         1 MOL      -0.303900
     14 C12          7.6400    20.3110    13.7110 ca         1 MOL      -0.039000
     15 C13          7.2980    21.0710    12.5540 ca         1 MOL      -0.179750
     16 C14          9.5100    19.1690    15.0100 ce         1 MOL       0.527400
     17 N3          10.6490    18.4980    14.8140 nv         1 MOL      -0.470100
     18 N4           8.8460    18.9780    16.1820 nv         1 MOL      -0.454200
     19 C15          9.7480    23.6170     7.7580 c3         1 MOL       0.129400
     20 O1           9.4980    24.7140     6.9300 os         1 MOL      -0.303900
     21 C16          8.5580    23.5120     8.6720 c3         1 MOL      -0.098400
     22 C17          8.9940    22.5880     9.7390 c3         1 MOL       0.129400
     23 O2           7.8880    22.2050    10.5570 os         1 MOL      -0.303900
     24 H1          11.6020    23.2610     6.0890 ha         1 MOL       0.174000
     25 H2          12.9320    23.8000     4.0620 ha         1 MOL       0.153500
     26 H3          10.5080    27.2160     3.3410 ha         1 MOL       0.153500
     27 H4           9.2180    26.6990     5.3350 ha         1 MOL       0.174000
     28 H5          13.9980    24.9930     1.1270 hn         1 MOL       0.327200
     29 H6          13.7260    24.1150     2.6150 hn         1 MOL       0.327200
     30 H7          12.6770    26.8040     0.5670 hn         1 MOL       0.327200
     31 H8          11.3890    27.3000     1.6410 hn         1 MOL       0.327200
     32 H9          10.2800    21.1870    11.0150 ha         1 MOL       0.174000
     33 H10         10.8830    19.9060    13.0440 ha         1 MOL       0.153500
     34 H11          6.8880    20.0650    14.4470 ha         1 MOL       0.153500
     35 H12          6.2740    21.3960    12.4450 ha         1 MOL       0.174000
     36 H13         11.0690    17.9830    15.5750 hn         1 MOL       0.327200
     37 H14         11.0900    18.5060    13.9050 hn         1 MOL       0.327200
     38 H15          9.2860    18.4670    16.9340 hn         1 MOL       0.327200
     39 H16          7.9130    19.3470    16.3000 hn         1 MOL       0.327200
     40 H17         10.6430    23.8070     8.3500 h1         1 MOL       0.053700
     41 H18          9.8190    22.7140     7.1510 h1         1 MOL       0.053700
     42 H19          7.7240    23.0680     8.1290 hc         1 MOL       0.089700
     43 H20          8.3480    24.4900     9.1050 hc         1 MOL       0.089700
     44 H21          9.7490    23.0760    10.3550 h1         1 MOL       0.053700
     45 H22          9.4390    21.7000     9.2900 h1         1 MOL       0.053700
@<TRIPOS>BOND
     1     1     2 ar  
     2     1     6 ar  
     3     1    20 1   
     4     2     3 ar  
     5     2    24 1   
     6     3     4 ar  
     7     3    25 1   
     8     4     5 ar  
     9     4     7 1   
    10     5     6 ar  
    11     5    26 1   
    12     6    27 1   
    13     7     8 2   
    14     7     9 1   
    15     8    28 1   
    16     8    29 1   
    17     9    30 1   
    18     9    31 1   
    19    10    11 ar  
    20    10    15 ar  
    21    10    23 1   
    22    11    12 ar  
    23    11    32 1   
    24    12    13 ar  
    25    12    33 1   
    26    13    14 ar  
    27    13    16 1   
    28    14    15 ar  
    29    14    34 1   
    30    15    35 1   
    31    16    17 2   
    32    16    18 1   
    33    17    36 1   
    34    17    37 1   
    35    18    38 1   
    36    18    39 1   
    37    19    20 1   
    38    19    21 1   
    39    19    40 1   
    40    19    41 1   
    41    21    22 1   
    42    21    42 1   
    43    21    43 1   
    44    22    23 1   
    45    22    44 1   
    46    22    45 1   
@<TRIPOS>SUBSTRUCTURE
     1 MOL         1 TEMP              0 ****  ****    0 ROOT
