
                    3D
 Schrodinger Suite 2021-1.
 45 46  0  0  1  0            999 V2000
   10.3140   24.9350    5.8720 C   0  0  0  0  0  0
   11.3540   24.1310    5.4990 C   0  0  0  0  0  0
   12.1040   24.4320    4.3480 C   0  0  0  0  0  0
   11.8310   25.5280    3.5350 C   0  0  0  0  0  0
   10.7650   26.3460    3.9270 C   0  0  0  0  0  0
   10.0320   26.0390    5.0750 C   0  0  0  0  0  0
   12.5250   25.7170    2.3120 C   0  0  0  0  0  0
   13.4920   24.8760    1.9930 N   0  3  0  0  0  0
   12.1660   26.6910    1.4310 N   0  0  0  0  0  0
    8.2420   21.3980   11.5770 C   0  0  0  0  0  0
    9.5270   20.9640   11.7560 C   0  0  0  0  0  0
    9.8650   20.2340   12.8950 C   0  0  0  0  0  0
    8.9630   19.8820   13.8900 C   0  0  0  0  0  0
    7.6400   20.3110   13.7110 C   0  0  0  0  0  0
    7.2980   21.0710   12.5540 C   0  0  0  0  0  0
    9.5100   19.1690   15.0100 C   0  0  0  0  0  0
   10.6490   18.4980   14.8140 N   0  3  0  0  0  0
    8.8460   18.9780   16.1820 N   0  0  0  0  0  0
    9.7480   23.6170    7.7580 C   0  0  0  0  0  0
    9.4980   24.7140    6.9300 O   0  0  0  0  0  0
    8.5580   23.5120    8.6720 C   0  0  0  0  0  0
    8.9940   22.5880    9.7390 C   0  0  0  0  0  0
    7.8880   22.2050   10.5570 O   0  0  0  0  0  0
   11.6024   23.2610    6.0887 H   0  0  0  0  0  0
   12.9320   23.8001    4.0625 H   0  0  0  0  0  0
   10.5083   27.2162    3.3412 H   0  0  0  0  0  0
    9.2179   26.6992    5.3354 H   0  0  0  0  0  0
   13.9980   24.9934    1.1268 H   0  0  0  0  0  0
   13.7255   24.1154    2.6152 H   0  0  0  0  0  0
   12.6771   26.8040    0.5672 H   0  0  0  0  0  0
   11.3886   27.3005    1.6412 H   0  0  0  0  0  0
   10.2804   21.1867   11.0149 H   0  0  0  0  0  0
   10.8832   19.9062   13.0438 H   0  0  0  0  0  0
    6.8884   20.0654   14.4467 H   0  0  0  0  0  0
    6.2737   21.3957   12.4453 H   0  0  0  0  0  0
   11.0688   17.9827   15.5745 H   0  0  0  0  0  0
   11.0900   18.5062   13.9054 H   0  0  0  0  0  0
    9.2856   18.4668   16.9340 H   0  0  0  0  0  0
    7.9134   19.3474   16.3001 H   0  0  0  0  0  0
   10.6434   23.8068    8.3499 H   0  0  0  0  0  0
    9.8192   22.7143    7.1512 H   0  0  0  0  0  0
    7.7237   23.0681    8.1288 H   0  0  0  0  0  0
    8.3481   24.4900    9.1050 H   0  0  0  0  0  0
    9.7494   23.0756   10.3551 H   0  0  0  0  0  0
    9.4386   21.6996    9.2905 H   0  0  0  0  0  0
  1  2  2  0  0  0
  1  6  1  0  0  0
  1 20  1  0  0  0
  2  3  1  0  0  0
  2 24  1  0  0  0
  3  4  2  0  0  0
  3 25  1  0  0  0
  4  5  1  0  0  0
  4  7  1  0  0  0
  5  6  2  0  0  0
  5 26  1  0  0  0
  6 27  1  0  0  0
  7  8  2  0  0  0
  7  9  1  0  0  0
  8 28  1  0  0  0
  8 29  1  0  0  0
  9 30  1  0  0  0
  9 31  1  0  0  0
 10 11  2  0  0  0
 10 15  1  0  0  0
 10 23  1  0  0  0
 11 12  1  0  0  0
 11 32  1  0  0  0
 12 13  2  0  0  0
 12 33  1  0  0  0
 13 14  1  0  0  0
 13 16  1  0  0  0
 14 15  2  0  0  0
 14 34  1  0  0  0
 15 35  1  0  0  0
 16 17  2  0  0  0
 16 18  1  0  0  0
 17 36  1  0  0  0
 17 37  1  0  0  0
 18 38  1  0  0  0
 18 39  1  0  0  0
 19 20  1  0  0  0
 19 21  1  0  0  0
 19 40  1  0  0  0
 19 41  1  0  0  0
 21 22  1  0  0  0
 21 42  1  0  0  0
 21 43  1  0  0  0
 22 23  1  0  0  0
 22 44  1  0  0  0
 22 45  1  0  0  0
M  CHG  2   8   1  17   1
M  END
> <s_pdb_PDB_format_version>
3.0

> <b_ppw_prepared>
1

> <s_ppw_prepared_with_version>
2021-1

> <s_ppw_het_states>
eJxNkEESgyAMRa/CuKYdfhTFXsXxBk53XTnevQnkoy78SYCX5J8Dhk/Y9EMMaY9hE9fRdXLNrrPr4lpigOnqORIDEkEkyAShIBXEYnEeCiskC8nSZyVZKtki20OrUl/GMJOmpeSxHo8eqk5+WTV7VUNOkStCfOFyhyvBRgUbWpIfJ8JGdsV8AA0xL4SmmB/oSZ95ajShQebNndB486fvVhNwUZuLTS1o42j2Sm99cV4xfH/H0f77fv0B1XxvIw==

$$$$
