@<TRIPOS>MOLECULE
MOL
   57    62     1     0     0
SMALL
bcc


@<TRIPOS>ATOM
      1 O1          11.1520    17.4330    17.0220 oh         1 MOL      -0.488100
      2 C1          10.6820    18.1960    16.1500 ca         1 MOL       0.152100
      3 C2           9.6130    19.8840    14.1740 ca         1 MOL      -0.172900
      4 C3          11.5450    18.9590    15.3440 ca         1 MOL      -0.191000
      5 C4          11.0050    19.8070    14.3530 ca         1 MOL      -0.057500
      6 C5           9.2850    18.2730    15.9720 ca         1 MOL      -0.191000
      7 C6           8.7470    19.1170    14.9940 ca         1 MOL      -0.057500
      8 C7           9.0880    20.5380    13.0710 cc         1 MOL       0.505400
      9 N1           9.8450    21.1830    12.0530 na         1 MOL      -0.282300
     10 C8           8.9010    21.7020    11.1340 ca         1 MOL      -0.082200
     11 C9           7.5110    21.4220    11.5310 ca         1 MOL       0.100400
     12 N2           7.7380    20.6710    12.7600 nd         1 MOL      -0.564100
     13 C10          6.5170    21.9210    10.6650 ca         1 MOL      -0.075000
     14 C11          6.8500    22.6560     9.5090 ca         1 MOL      -0.105000
     15 C12          8.1870    22.8790     9.1650 ca         1 MOL      -0.128900
     16 C13          9.2190    22.3800    10.0310 ca         1 MOL      -0.114000
     17 C14          8.5930    23.6220     8.0950 cc         1 MOL       0.510400
     18 N3           9.8090    23.5000     7.3680 na         1 MOL      -0.277300
     19 C15          9.8900    24.4980     6.4300 ca         1 MOL      -0.081200
     20 C16          8.7040    25.3260     6.5750 ca         1 MOL       0.092400
     21 N4           7.9520    24.7900     7.5860 nd         1 MOL      -0.554100
     22 C17          8.5150    26.3890     5.7890 ca         1 MOL      -0.054000
     23 C18          9.4940    26.7060     4.7840 ca         1 MOL      -0.178000
     24 C19         10.6290    25.9140     4.6320 ca         1 MOL       0.045600
     25 C20         10.8140    24.7820     5.5040 ca         1 MOL      -0.089000
     26 N5          11.5650    26.1500     3.6940 nh         1 MOL      -0.616000
     27 C21         11.4190    27.2900     2.8610 c3         1 MOL       0.150800
     28 C22         12.5770    27.6030     2.1080 c3         1 MOL       0.106800
     29 N6          13.2940    26.5070     1.6450 nx         1 MOL      -0.681400
     30 C23         13.2840    25.2890     2.3000 c3         1 MOL       0.106800
     31 C24         12.1460    25.0050     3.0660 c3         1 MOL       0.150800
     32 C25         13.1020    26.3490     0.3040 c3         1 MOL       0.079100
     33 H1          10.4340    16.9890    17.4800 ho         1 MOL       0.428000
     34 H2          12.6140    18.8940    15.4850 ha         1 MOL       0.152500
     35 H3          11.6630    20.3970    13.7320 ha         1 MOL       0.146500
     36 H4           8.6280    17.6800    16.5910 ha         1 MOL       0.152500
     37 H5           7.6770    19.1860    14.8620 ha         1 MOL       0.146500
     38 H6          10.8540    21.1920    12.1030 hn         1 MOL       0.309700
     39 H7           5.4740    21.7430    10.8810 ha         1 MOL       0.161000
     40 H8           6.0690    23.0540     8.8780 ha         1 MOL       0.157000
     41 H9          10.2560    22.5560     9.7860 ha         1 MOL       0.132000
     42 H10         10.4540    22.7540     7.5850 hn         1 MOL       0.313700
     43 H11          7.6340    27.0010     5.9110 ha         1 MOL       0.163000
     44 H12          9.3510    27.5630     4.1420 ha         1 MOL       0.122000
     45 H13         11.6950    24.1630     5.4120 ha         1 MOL       0.149000
     46 H14         11.1410    28.1500     3.4700 h1         1 MOL       0.079200
     47 H15         10.5780    27.1380     2.1840 h1         1 MOL       0.079200
     48 H16         13.2330    28.2380     2.7030 hx         1 MOL       0.106700
     49 H17         12.2990    28.2340     1.2640 hx         1 MOL       0.106700
     50 H18         14.2560    26.8060     1.7140 hn         1 MOL       0.448800
     51 H19         14.1700    25.2130     2.9310 hx         1 MOL       0.106700
     52 H20         13.4380    24.4900     1.5750 hx         1 MOL       0.106700
     53 H21         11.3990    24.5200     2.4380 h1         1 MOL       0.079200
     54 H22         12.3970    24.2650     3.8260 h1         1 MOL       0.079200
     55 H23         13.6690    25.4870    -0.0460 hx         1 MOL       0.104367
     56 H24         12.0420    26.1910     0.1040 hx         1 MOL       0.104367
     57 H25         13.4410    27.2430    -0.2200 hx         1 MOL       0.104367
@<TRIPOS>BOND
     1     1     2 1   
     2     1    33 1   
     3     2     4 ar  
     4     2     6 ar  
     5     3     5 ar  
     6     3     7 ar  
     7     3     8 1   
     8     4     5 ar  
     9     4    34 1   
    10     5    35 1   
    11     6     7 ar  
    12     6    36 1   
    13     7    37 1   
    14     8     9 1   
    15     8    12 2   
    16     9    10 1   
    17     9    38 1   
    18    10    11 ar  
    19    10    16 ar  
    20    11    12 1   
    21    11    13 ar  
    22    13    14 ar  
    23    13    39 1   
    24    14    15 ar  
    25    14    40 1   
    26    15    16 ar  
    27    15    17 1   
    28    16    41 1   
    29    17    18 1   
    30    17    21 2   
    31    18    19 1   
    32    18    42 1   
    33    19    20 ar  
    34    19    25 ar  
    35    20    21 1   
    36    20    22 ar  
    37    22    23 ar  
    38    22    43 1   
    39    23    24 ar  
    40    23    44 1   
    41    24    25 ar  
    42    24    26 1   
    43    25    45 1   
    44    26    27 1   
    45    26    31 1   
    46    27    28 1   
    47    27    46 1   
    48    27    47 1   
    49    28    29 1   
    50    28    48 1   
    51    28    49 1   
    52    29    30 1   
    53    29    32 1   
    54    29    50 1   
    55    30    31 1   
    56    30    51 1   
    57    30    52 1   
    58    31    53 1   
    59    31    54 1   
    60    32    55 1   
    61    32    56 1   
    62    32    57 1   
@<TRIPOS>SUBSTRUCTURE
     1 MOL         1 TEMP              0 ****  ****    0 ROOT
