
                    3D
 Schrodinger Suite 2021-1.
 57 62  0  0  1  0            999 V2000
   11.1520   17.4330   17.0220 O   0  0  0  0  0  0
   10.6820   18.1960   16.1500 C   0  0  0  0  0  0
    9.6130   19.8840   14.1740 C   0  0  0  0  0  0
   11.5450   18.9590   15.3440 C   0  0  0  0  0  0
   11.0050   19.8070   14.3530 C   0  0  0  0  0  0
    9.2850   18.2730   15.9720 C   0  0  0  0  0  0
    8.7470   19.1170   14.9940 C   0  0  0  0  0  0
    9.0880   20.5380   13.0710 C   0  0  0  0  0  0
    9.8450   21.1830   12.0530 N   0  0  0  0  0  0
    8.9010   21.7020   11.1340 C   0  0  0  0  0  0
    7.5110   21.4220   11.5310 C   0  0  0  0  0  0
    7.7380   20.6710   12.7600 N   0  0  0  0  0  0
    6.5170   21.9210   10.6650 C   0  0  0  0  0  0
    6.8500   22.6560    9.5090 C   0  0  0  0  0  0
    8.1870   22.8790    9.1650 C   0  0  0  0  0  0
    9.2190   22.3800   10.0310 C   0  0  0  0  0  0
    8.5930   23.6220    8.0950 C   0  0  0  0  0  0
    9.8090   23.5000    7.3680 N   0  0  0  0  0  0
    9.8900   24.4980    6.4300 C   0  0  0  0  0  0
    8.7040   25.3260    6.5750 C   0  0  0  0  0  0
    7.9520   24.7900    7.5860 N   0  0  0  0  0  0
    8.5150   26.3890    5.7890 C   0  0  0  0  0  0
    9.4940   26.7060    4.7840 C   0  0  0  0  0  0
   10.6290   25.9140    4.6320 C   0  0  0  0  0  0
   10.8140   24.7820    5.5040 C   0  0  0  0  0  0
   11.5650   26.1500    3.6940 N   0  0  0  0  0  0
   11.4190   27.2900    2.8610 C   0  0  0  0  0  0
   12.5770   27.6030    2.1080 C   0  0  0  0  0  0
   13.2940   26.5070    1.6450 N   0  3  0  0  0  0
   13.2840   25.2890    2.3000 C   0  0  0  0  0  0
   12.1460   25.0050    3.0660 C   0  0  0  0  0  0
   13.1020   26.3490    0.3040 C   0  0  0  0  0  0
   10.4344   16.9893   17.4800 H   0  0  0  0  0  0
   12.6138   18.8941   15.4850 H   0  0  0  0  0  0
   11.6628   20.3970   13.7320 H   0  0  0  0  0  0
    8.6282   17.6799   16.5911 H   0  0  0  0  0  0
    7.6773   19.1857   14.8623 H   0  0  0  0  0  0
   10.8537   21.1921   12.1029 H   0  0  0  0  0  0
    5.4739   21.7431   10.8808 H   0  0  0  0  0  0
    6.0687   23.0537    8.8783 H   0  0  0  0  0  0
   10.2559   22.5560    9.7855 H   0  0  0  0  0  0
   10.4543   22.7538    7.5847 H   0  0  0  0  0  0
    7.6337   27.0012    5.9113 H   0  0  0  0  0  0
    9.3509   27.5626    4.1420 H   0  0  0  0  0  0
   11.6946   24.1635    5.4124 H   0  0  0  0  0  0
   11.1408   28.1498    3.4705 H   0  0  0  0  0  0
   10.5780   27.1380    2.1844 H   0  0  0  0  0  0
   13.2334   28.2377    2.7033 H   0  0  0  0  0  0
   12.2985   28.2341    1.2641 H   0  0  0  0  0  0
   14.2562   26.8061    1.7138 H   0  0  0  0  0  0
   14.1697   25.2130    2.9307 H   0  0  0  0  0  0
   13.4375   24.4899    1.5748 H   0  0  0  0  0  0
   11.3993   24.5197    2.4375 H   0  0  0  0  0  0
   12.3973   24.2648    3.8256 H   0  0  0  0  0  0
   13.6695   25.4866   -0.0457 H   0  0  0  0  0  0
   12.0422   26.1911    0.1043 H   0  0  0  0  0  0
   13.4406   27.2429   -0.2199 H   0  0  0  0  0  0
  1  2  1  0  0  0
  1 33  1  0  0  0
  2  4  2  0  0  0
  2  6  1  0  0  0
  3  5  2  0  0  0
  3  7  1  0  0  0
  3  8  1  0  0  0
  4  5  1  0  0  0
  4 34  1  0  0  0
  5 35  1  0  0  0
  6  7  2  0  0  0
  6 36  1  0  0  0
  7 37  1  0  0  0
  8  9  1  0  0  0
  8 12  2  0  0  0
  9 10  1  0  0  0
  9 38  1  0  0  0
 10 11  2  0  0  0
 10 16  1  0  0  0
 11 12  1  0  0  0
 11 13  1  0  0  0
 13 14  2  0  0  0
 13 39  1  0  0  0
 14 15  1  0  0  0
 14 40  1  0  0  0
 15 16  2  0  0  0
 15 17  1  0  0  0
 16 41  1  0  0  0
 17 18  1  0  0  0
 17 21  2  0  0  0
 18 19  1  0  0  0
 18 42  1  0  0  0
 19 20  2  0  0  0
 19 25  1  0  0  0
 20 21  1  0  0  0
 20 22  1  0  0  0
 22 23  2  0  0  0
 22 43  1  0  0  0
 23 24  1  0  0  0
 23 44  1  0  0  0
 24 25  2  0  0  0
 24 26  1  0  0  0
 25 45  1  0  0  0
 26 27  1  0  0  0
 26 31  1  0  0  0
 27 28  1  0  0  0
 27 46  1  0  0  0
 27 47  1  0  0  0
 28 29  1  0  0  0
 28 48  1  0  0  0
 28 49  1  0  0  0
 29 30  1  0  0  0
 29 32  1  0  0  0
 29 50  1  0  0  0
 30 31  1  0  0  0
 30 51  1  0  0  0
 30 52  1  0  0  0
 31 53  1  0  0  0
 31 54  1  0  0  0
 32 55  1  0  0  0
 32 56  1  0  0  0
 32 57  1  0  0  0
M  CHG  1  29   1
M  END
> <s_pdb_PDB_format_version>
3.0

> <b_ppw_prepared>
1

> <s_ppw_prepared_with_version>
2021-1

> <s_ppw_het_states>
eJztmUlu4zAQRa9iaG0QrIFTXyXIDYLe9crI3ZtF8VNELxuOYdnMIjWQ+qIoPVRJvm20/bp81D+6Xvzn9fLB3Uq32m3oNnabus3dlm7Jw4EiQZKgSRAlqBJkCboEYYIyQ5nHWqHMUGYoM5QZygxlhjJXZWrXCmWBsjRl82xjuM+rtupzdyOOvl5Cz1Y3HdncXW0TqO9e6nPrKM5vE7mnLed7vjnUB1qAc1qWeA4EgTlYpTmEczcnYsQCrLU5eQp4nNSyWKY5dhN4BJBuWZqDsWV2XYJNM0cxorsAjwAXZw6nKZAhbWvDQs0Zt9Ac8XOAFVh2F6iRd0Wr4G0jrs89OcpVcWODwIakHrhJbkPiY5XYdJ/IJfH39fL7z9fX/r89G2ejZtySk1MDdyCwqPlhanISw6bsMGS7jh0NdYliPj8ar1JQFhqPRqOEOKHhg04VpUg4aojoK4DyKjVkdV4PBYWcpxSm1qt2VOHotpR8nkqKpvODsirKD4DCMyj0mqAEVjoqSpL2VkI7JxR9WWg8CxpPVUPeAo2gOtWQVFq3BTaK7SUqSiENDydl3MRFyhOT8g7dVkl23G1/E6lhiePbVnScgqDbYies5wdlvZYsUP4DFHv62TjpZCRfBhnREWd6OBp377buhYZfaLwZGqIyui12kZRRQ9glTuPbVnCZKZ6flHt1W4uUdyMl5DyREkop+ArMjqPM3By/nbCVm38KzOf3X2pkiX4=

$$$$
