@<TRIPOS>MOLECULE
MOL
   63    65     1     0     0
SMALL
bcc


@<TRIPOS>ATOM
      1 C1          11.7230    25.9930    66.9190 c          1 MOL       0.662900
      2 O1          10.8910    26.9010    66.6280 o          1 MOL      -0.592100
      3 N1          11.4910    25.1470    67.9860 ns         1 MOL      -0.458100
      4 C2          10.2310    25.3730    68.6710 cc         1 MOL      -0.041400
      5 C3           9.9040    24.8350    69.8800 cc         1 MOL      -0.186000
      6 C4           8.6610    25.3200    70.1650 cd         1 MOL      -0.188900
      7 N2           8.2100    26.1000    69.1370 na         1 MOL      -0.003100
      8 C5           9.1880    26.1530    68.1930 cd         1 MOL      -0.132300
      9 C6           6.9270    26.8350    68.9690 c3         1 MOL       0.015600
     10 C7           7.7770    24.9620    71.2960 c          1 MOL       0.712700
     11 O2           6.6500    25.4350    71.4960 o          1 MOL      -0.620100
     12 N3           8.3290    23.9400    71.9810 ns         1 MOL      -0.440100
     13 C8           7.7090    23.3440    73.1000 cc         1 MOL      -0.023400
     14 C9           8.4240    22.6090    74.0370 cc         1 MOL      -0.183000
     15 C10          7.5070    22.1530    74.9550 cd         1 MOL      -0.199900
     16 N4           6.2800    22.6420    74.6250 na         1 MOL      -0.002100
     17 C11          6.4130    23.4140    73.4680 cd         1 MOL      -0.126300
     18 C12          4.9670    22.4780    75.2720 c3         1 MOL       0.015600
     19 C13          7.5830    21.3240    76.1770 c          1 MOL       0.717700
     20 O3           6.5090    20.9830    76.6880 o          1 MOL      -0.621100
     21 N5           8.8070    21.0280    76.6810 ns         1 MOL      -0.446100
     22 C14          8.8800    20.2020    77.8970 cc         1 MOL      -0.009400
     23 C15         10.1430    19.8160    78.4330 cc         1 MOL      -0.167000
     24 C16          9.8880    19.0520    79.5780 cd         1 MOL      -0.229900
     25 N6           8.5380    18.9740    79.6810 na         1 MOL       0.002900
     26 C17          7.9510    19.6890    78.6600 cd         1 MOL      -0.108300
     27 C18          7.5350    18.3580    80.5280 c3         1 MOL       0.015600
     28 C19         10.9440    18.3990    80.3470 c          1 MOL       0.731700
     29 O4          10.7200    17.3930    81.0130 o          1 MOL      -0.690100
     30 N7          12.2170    18.7610    80.1850 ns         1 MOL      -0.578900
     31 C20         13.3890    18.1650    80.9030 c3         1 MOL       0.100000
     32 C21         13.2070    18.0500    82.4090 c3         1 MOL      -0.193700
     33 C22         14.3920    18.3460    83.2950 c2         1 MOL       0.445800
     34 N8          14.0590    18.5550    84.6070 nv         1 MOL      -0.468600
     35 N9          15.6470    18.4530    82.9780 nv         1 MOL      -0.452700
     36 H1          12.6220    25.8760    66.3320 h5         1 MOL       0.035200
     37 H2          12.1740    24.4440    68.2310 hn         1 MOL       0.318500
     38 H3          10.5970    24.1760    70.3830 ha         1 MOL       0.144000
     39 H4           9.2780    26.6480    67.2370 h4         1 MOL       0.210000
     40 H5           6.9270    27.3520    68.0090 h1         1 MOL       0.068367
     41 H6           6.0970    26.1300    69.0010 h1         1 MOL       0.068367
     42 H7           6.8170    27.5630    69.7730 h1         1 MOL       0.068367
     43 H8           9.2250    23.5690    71.6990 hn         1 MOL       0.323500
     44 H9           9.4940    22.5010    73.9360 ha         1 MOL       0.144000
     45 H10          5.7160    23.9960    72.8830 h4         1 MOL       0.214000
     46 H11          4.2130    23.0270    74.7080 h1         1 MOL       0.068700
     47 H12          4.7030    21.4210    75.2970 h1         1 MOL       0.068700
     48 H13          5.0120    22.8650    76.2900 h1         1 MOL       0.068700
     49 H14          9.6390    21.3720    76.2230 hn         1 MOL       0.327500
     50 H15         11.0550    20.1260    77.9440 ha         1 MOL       0.149000
     51 H16          6.9090    19.8620    78.4330 h4         1 MOL       0.222000
     52 H17          6.5410    18.6190    80.1640 h1         1 MOL       0.068700
     53 H18          7.6560    17.2750    80.5070 h1         1 MOL       0.068700
     54 H19          7.6530    18.7160    81.5510 h1         1 MOL       0.068700
     55 H20         12.4540    19.4950    79.5330 hn         1 MOL       0.333500
     56 H21         14.2810    18.7550    80.6910 h1         1 MOL       0.079200
     57 H22         13.6030    17.1800    80.4890 h1         1 MOL       0.079200
     58 H23         12.8220    17.0580    82.6470 hc         1 MOL       0.107200
     59 H24         12.3670    18.6740    82.7160 hc         1 MOL       0.107200
     60 H25         14.7790    18.7610    85.2840 hn         1 MOL       0.331950
     61 H26         13.0930    18.5030    84.8970 hn         1 MOL       0.331950
     62 H27         16.3320    18.6570    83.6910 hn         1 MOL       0.331950
     63 H28         15.9380    18.3320    82.0180 hn         1 MOL       0.331950
@<TRIPOS>BOND
     1     1     2 2   
     2     1     3 1   
     3     1    36 1   
     4     3     4 1   
     5     3    37 1   
     6     4     5 1   
     7     4     8 2   
     8     5     6 2   
     9     5    38 1   
    10     6     7 1   
    11     6    10 1   
    12     7     8 1   
    13     7     9 1   
    14     8    39 1   
    15     9    40 1   
    16     9    41 1   
    17     9    42 1   
    18    10    11 2   
    19    10    12 1   
    20    12    13 1   
    21    12    43 1   
    22    13    14 1   
    23    13    17 2   
    24    14    15 2   
    25    14    44 1   
    26    15    16 1   
    27    15    19 1   
    28    16    17 1   
    29    16    18 1   
    30    17    45 1   
    31    18    46 1   
    32    18    47 1   
    33    18    48 1   
    34    19    20 2   
    35    19    21 1   
    36    21    22 1   
    37    21    49 1   
    38    22    23 1   
    39    22    26 2   
    40    23    24 2   
    41    23    50 1   
    42    24    25 1   
    43    24    28 1   
    44    25    26 1   
    45    25    27 1   
    46    26    51 1   
    47    27    52 1   
    48    27    53 1   
    49    27    54 1   
    50    28    29 2   
    51    28    30 1   
    52    30    31 1   
    53    30    55 1   
    54    31    32 1   
    55    31    56 1   
    56    31    57 1   
    57    32    33 1   
    58    32    58 1   
    59    32    59 1   
    60    33    34 2   
    61    33    35 1   
    62    34    60 1   
    63    34    61 1   
    64    35    62 1   
    65    35    63 1   
@<TRIPOS>SUBSTRUCTURE
     1 MOL         1 TEMP              0 ****  ****    0 ROOT
