
                    3D
 Schrodinger Suite 2021-1.
 63 65  0  0  1  0            999 V2000
   11.7230   25.9930   66.9190 C   0  0  0  0  0  0
   10.8910   26.9010   66.6280 O   0  0  0  0  0  0
   11.4910   25.1470   67.9860 N   0  0  0  0  0  0
   10.2310   25.3730   68.6710 C   0  0  0  0  0  0
    9.9040   24.8350   69.8800 C   0  0  0  0  0  0
    8.6610   25.3200   70.1650 C   0  0  0  0  0  0
    8.2100   26.1000   69.1370 N   0  0  0  0  0  0
    9.1880   26.1530   68.1930 C   0  0  0  0  0  0
    6.9270   26.8350   68.9690 C   0  0  0  0  0  0
    7.7770   24.9620   71.2960 C   0  0  0  0  0  0
    6.6500   25.4350   71.4960 O   0  0  0  0  0  0
    8.3290   23.9400   71.9810 N   0  0  0  0  0  0
    7.7090   23.3440   73.1000 C   0  0  0  0  0  0
    8.4240   22.6090   74.0370 C   0  0  0  0  0  0
    7.5070   22.1530   74.9550 C   0  0  0  0  0  0
    6.2800   22.6420   74.6250 N   0  0  0  0  0  0
    6.4130   23.4140   73.4680 C   0  0  0  0  0  0
    4.9670   22.4780   75.2720 C   0  0  0  0  0  0
    7.5830   21.3240   76.1770 C   0  0  0  0  0  0
    6.5090   20.9830   76.6880 O   0  0  0  0  0  0
    8.8070   21.0280   76.6810 N   0  0  0  0  0  0
    8.8800   20.2020   77.8970 C   0  0  0  0  0  0
   10.1430   19.8160   78.4330 C   0  0  0  0  0  0
    9.8880   19.0520   79.5780 C   0  0  0  0  0  0
    8.5380   18.9740   79.6810 N   0  0  0  0  0  0
    7.9510   19.6890   78.6600 C   0  0  0  0  0  0
    7.5350   18.3580   80.5280 C   0  0  0  0  0  0
   10.9440   18.3990   80.3470 C   0  0  0  0  0  0
   10.7200   17.3930   81.0130 O   0  0  0  0  0  0
   12.2170   18.7610   80.1850 N   0  0  0  0  0  0
   13.3890   18.1650   80.9030 C   0  0  0  0  0  0
   13.2070   18.0500   82.4090 C   0  0  0  0  0  0
   14.3920   18.3460   83.2950 C   0  0  0  0  0  0
   14.0590   18.5550   84.6070 N   0  3  0  0  0  0
   15.6470   18.4530   82.9780 N   0  0  0  0  0  0
   12.6216   25.8756   66.3316 H   0  0  0  0  0  0
   12.1735   24.4438   68.2306 H   0  0  0  0  0  0
   10.5965   24.1764   70.3830 H   0  0  0  0  0  0
    9.2777   26.6476   67.2371 H   0  0  0  0  0  0
    6.9267   27.3518   68.0093 H   0  0  0  0  0  0
    6.0966   26.1296   69.0015 H   0  0  0  0  0  0
    6.8166   27.5627   69.7730 H   0  0  0  0  0  0
    9.2248   23.5685   71.6990 H   0  0  0  0  0  0
    9.4938   22.5008   73.9363 H   0  0  0  0  0  0
    5.7163   23.9964   72.8833 H   0  0  0  0  0  0
    4.2125   23.0267   74.7082 H   0  0  0  0  0  0
    4.7034   21.4207   75.2973 H   0  0  0  0  0  0
    5.0121   22.8651   76.2899 H   0  0  0  0  0  0
    9.6386   21.3725   76.2229 H   0  0  0  0  0  0
   11.0547   20.1259   77.9439 H   0  0  0  0  0  0
    6.9094   19.8621   78.4332 H   0  0  0  0  0  0
    6.5413   18.6191   80.1641 H   0  0  0  0  0  0
    7.6562   17.2750   80.5068 H   0  0  0  0  0  0
    7.6526   18.7163   81.5507 H   0  0  0  0  0  0
   12.4543   19.4949   79.5329 H   0  0  0  0  0  0
   14.2806   18.7550   80.6909 H   0  0  0  0  0  0
   13.6034   17.1798   80.4888 H   0  0  0  0  0  0
   12.8222   17.0584   82.6472 H   0  0  0  0  0  0
   12.3675   18.6740   82.7156 H   0  0  0  0  0  0
   14.7794   18.7609   85.2842 H   0  0  0  0  0  0
   13.0930   18.5032   84.8973 H   0  0  0  0  0  0
   16.3324   18.6572   83.6912 H   0  0  0  0  0  0
   15.9375   18.3320   82.0183 H   0  0  0  0  0  0
  1  2  2  0  0  0
  1  3  1  0  0  0
  1 36  1  0  0  0
  3  4  1  0  0  0
  3 37  1  0  0  0
  4  5  1  0  0  0
  4  8  2  0  0  0
  5  6  2  0  0  0
  5 38  1  0  0  0
  6  7  1  0  0  0
  6 10  1  0  0  0
  7  8  1  0  0  0
  7  9  1  0  0  0
  8 39  1  0  0  0
  9 40  1  0  0  0
  9 41  1  0  0  0
  9 42  1  0  0  0
 10 11  2  0  0  0
 10 12  1  0  0  0
 12 13  1  0  0  0
 12 43  1  0  0  0
 13 14  1  0  0  0
 13 17  2  0  0  0
 14 15  2  0  0  0
 14 44  1  0  0  0
 15 16  1  0  0  0
 15 19  1  0  0  0
 16 17  1  0  0  0
 16 18  1  0  0  0
 17 45  1  0  0  0
 18 46  1  0  0  0
 18 47  1  0  0  0
 18 48  1  0  0  0
 19 20  2  0  0  0
 19 21  1  0  0  0
 21 22  1  0  0  0
 21 49  1  0  0  0
 22 23  1  0  0  0
 22 26  2  0  0  0
 23 24  2  0  0  0
 23 50  1  0  0  0
 24 25  1  0  0  0
 24 28  1  0  0  0
 25 26  1  0  0  0
 25 27  1  0  0  0
 26 51  1  0  0  0
 27 52  1  0  0  0
 27 53  1  0  0  0
 27 54  1  0  0  0
 28 29  2  0  0  0
 28 30  1  0  0  0
 30 31  1  0  0  0
 30 55  1  0  0  0
 31 32  1  0  0  0
 31 56  1  0  0  0
 31 57  1  0  0  0
 32 33  1  0  0  0
 32 58  1  0  0  0
 32 59  1  0  0  0
 33 34  2  0  0  0
 33 35  1  0  0  0
 34 60  1  0  0  0
 34 61  1  0  0  0
 35 62  1  0  0  0
 35 63  1  0  0  0
M  CHG  1  34   1
M  END
> <s_pdb_PDB_format_version>
3.0

> <b_ppw_prepared>
1

> <s_ppw_prepared_with_version>
2021-1

> <s_ppw_het_states>
eJxNk0uSgzAMRK/iYs1MWRLmM1dJcYNUdlmlcveRjB7AIuq2xXMjVz6DDH/l4Y+Mpe5jeWhWyzplbVnnrEvWNeuWVSoCooAUmAJUoApYgSuABbJC1jMrZIWskBWyQlbIClkhG2SDbOcYIJuTpYtODhUz8z7tKcdiNIyFXq/tkmv2+tKc0uuSDS5jdpLDXS+5pezbwoFhlJ0QnN/FdDcL78Rqw0SymbYw5znz8c5lCBMtcQ16GsmdEEqcEGp3w/fGatyRclnKfLrhnFjV+W6IEy1xb4oxZhbCiBPCiBPCzttxYSTopidw91N/HfEZbPG/xGGGyVy7rLWF2+6uNZx8x/J6P5/H775//wFQibEL

$$$$
