
                    3D
 Schrodinger Suite 2021-1.
 59 60  0  0  1  0            999 V2000
   27.6620   24.1640   20.9890 C   0  0  0  0  0  0
   26.6870   25.0190   21.1410 N   0  3  0  0  0  0
   27.4640   23.2020   20.1360 N   0  0  0  0  0  0
   28.7920   24.1870   21.6840 N   0  0  0  0  0  0
   29.1910   25.1750   22.7090 C   0  0  0  0  0  0
   30.6760   25.1250   23.0270 C   0  0  0  0  0  0
   31.4360   24.3550   22.4670 O   0  0  0  0  0  0
   31.0760   26.0120   23.9590 N   0  0  0  0  0  0
   32.3490   26.3220   24.4080 C   0  0  0  0  0  0
   32.6190   27.3440   25.3370 C   0  0  0  0  0  0
   33.9880   27.3770   25.4810 C   0  0  0  0  0  0
   34.5450   26.4640   24.5940 N   0  0  0  0  0  0
   35.9490   26.2980   24.2100 C   0  0  0  0  0  0
   33.5250   25.7380   24.0250 C   0  0  0  0  0  0
   34.8440   28.2030   26.3690 C   0  0  0  0  0  0
   36.0560   28.2670   26.2570 O   0  0  0  0  0  0
   34.2010   28.8330   27.3800 N   0  0  0  0  0  0
   34.7910   29.6460   28.3440 C   0  0  0  0  0  0
   34.2680   30.0060   29.6110 C   0  0  0  0  0  0
   35.2220   30.8070   30.2060 C   0  0  0  0  0  0
   36.2960   30.9440   29.3380 N   0  0  0  0  0  0
   37.5300   31.7010   29.5400 C   0  0  0  0  0  0
   36.0260   30.2190   28.2010 C   0  0  0  0  0  0
   35.2270   31.4470   31.5400 C   0  0  0  0  0  0
   36.0930   32.1700   31.9920 O   0  0  0  0  0  0
   34.1510   31.1700   32.2870 N   0  0  0  0  0  0
   33.9920   31.6320   33.6710 C   0  0  0  0  0  0
   32.5170   31.6270   34.0850 C   0  0  0  0  0  0
   32.1760   32.3470   35.3570 C   0  0  0  0  0  0
   32.8430   33.3930   35.7870 N   0  3  0  0  0  0
   31.1400   31.9800   36.0620 N   0  0  0  0  0  0
   26.7850   25.7866   21.7901 H   0  0  0  0  0  0
   25.8347   24.9128   20.6095 H   0  0  0  0  0  0
   28.1838   22.5114   19.9776 H   0  0  0  0  0  0
   26.5905   23.1457   19.6321 H   0  0  0  0  0  0
   29.4911   23.4735   21.5350 H   0  0  0  0  0  0
   28.6193   25.0020   23.6208 H   0  0  0  0  0  0
   28.9269   26.1764   22.3690 H   0  0  0  0  0  0
   30.3934   26.5737   24.4474 H   0  0  0  0  0  0
   31.8065   27.9088   25.7698 H   0  0  0  0  0  0
   36.0355   25.4845   23.4897 H   0  0  0  0  0  0
   36.3148   27.2211   23.7604 H   0  0  0  0  0  0
   36.5428   26.0647   25.0938 H   0  0  0  0  0  0
   33.5126   24.8665   23.3873 H   0  0  0  0  0  0
   33.2013   28.7324   27.4831 H   0  0  0  0  0  0
   33.2961   29.6469   29.9159 H   0  0  0  0  0  0
   38.1668   31.6001   28.6611 H   0  0  0  0  0  0
   37.2903   32.7529   29.6955 H   0  0  0  0  0  0
   38.0545   31.3153   30.4142 H   0  0  0  0  0  0
   36.5964   30.0544   27.2988 H   0  0  0  0  0  0
   33.3978   30.6178   31.9024 H   0  0  0  0  0  0
   34.3918   32.6417   33.7647 H   0  0  0  0  0  0
   34.5583   30.9819   34.3379 H   0  0  0  0  0  0
   32.1659   30.5972   34.1502 H   0  0  0  0  0  0
   31.9144   32.0306   33.2714 H   0  0  0  0  0  0
   32.5743   33.8434   36.6502 H   0  0  0  0  0  0
   33.6248   33.7473   35.2546 H   0  0  0  0  0  0
   30.9133   32.4666   36.9175 H   0  0  0  0  0  0
   30.5654   31.2095   35.7518 H   0  0  0  0  0  0
  1  2  2  0  0  0
  1  3  1  0  0  0
  1  4  1  0  0  0
  2 32  1  0  0  0
  2 33  1  0  0  0
  3 34  1  0  0  0
  3 35  1  0  0  0
  4  5  1  0  0  0
  4 36  1  0  0  0
  5  6  1  0  0  0
  5 37  1  0  0  0
  5 38  1  0  0  0
  6  7  2  0  0  0
  6  8  1  0  0  0
  8  9  1  0  0  0
  8 39  1  0  0  0
  9 10  1  0  0  0
  9 14  2  0  0  0
 10 11  2  0  0  0
 10 40  1  0  0  0
 11 12  1  0  0  0
 11 15  1  0  0  0
 12 13  1  0  0  0
 12 14  1  0  0  0
 13 41  1  0  0  0
 13 42  1  0  0  0
 13 43  1  0  0  0
 14 44  1  0  0  0
 15 16  2  0  0  0
 15 17  1  0  0  0
 17 18  1  0  0  0
 17 45  1  0  0  0
 18 19  1  0  0  0
 18 23  2  0  0  0
 19 20  2  0  0  0
 19 46  1  0  0  0
 20 21  1  0  0  0
 20 24  1  0  0  0
 21 22  1  0  0  0
 21 23  1  0  0  0
 22 47  1  0  0  0
 22 48  1  0  0  0
 22 49  1  0  0  0
 23 50  1  0  0  0
 24 25  2  0  0  0
 24 26  1  0  0  0
 26 27  1  0  0  0
 26 51  1  0  0  0
 27 28  1  0  0  0
 27 52  1  0  0  0
 27 53  1  0  0  0
 28 29  1  0  0  0
 28 54  1  0  0  0
 28 55  1  0  0  0
 29 30  2  0  0  0
 29 31  1  0  0  0
 30 56  1  0  0  0
 30 57  1  0  0  0
 31 58  1  0  0  0
 31 59  1  0  0  0
M  CHG  2   2   1  30   1
M  END
> <i_pdb_PDB_Model>
1

> <s_pdb_PDB_format_version>
3.0

> <b_ppw_prepared>
1

> <s_ppw_prepared_with_version>
2021-1

> <s_ppw_het_states>
eJxNkksOwjAQQ68SZR1Qxkl/XKXqDRA7Voi7Mw7jqiywPYQXM/STLT/S7i8rqR4l7SjJqC1yD51C59AldA3dQq3KiGiQEdMENVFNWBPXBDaRITLOriJDZIgMkSEyRIbIELlV/ehBpuM+nI7RoKQWB9z2sK5TWNc5rOsSX3O7xtR1C0utF991CYem4Mb0T4ygq8a0XYP6jCOzAAyLPqFRlWG2S+DuoEVzx9CyuWc7g+7hFLgG1eER7h1n0FZooDo0UB0aqA5NOxswjAaebvXu809uqz+u7mv1Brl3Jb8sT9UTD35Ler2fz//7cXx/mK6aLA==

$$$$
