@<TRIPOS>MOLECULE
MOL
   59    60     1     0     0
SMALL
bcc


@<TRIPOS>ATOM
      1 C1          27.6620    24.1640    20.9890 cz         1 MOL       0.530300
      2 N1          26.6870    25.0190    21.1410 nv         1 MOL      -0.519600
      3 N2          27.4640    23.2020    20.1360 nv         1 MOL      -0.503700
      4 N3          28.7920    24.1870    21.6840 nu         1 MOL      -0.381200
      5 C2          29.1910    25.1750    22.7090 c3         1 MOL      -0.060700
      6 C3          30.6760    25.1250    23.0270 c          1 MOL       0.654100
      7 O1          31.4360    24.3550    22.4670 o          1 MOL      -0.594100
      8 N4          31.0760    26.0120    23.9590 ns         1 MOL      -0.405100
      9 C4          32.3490    26.3220    24.4080 cc         1 MOL      -0.075400
     10 C5          32.6190    27.3440    25.3370 cc         1 MOL      -0.169000
     11 C6          33.9880    27.3770    25.4810 cd         1 MOL      -0.171900
     12 N5          34.5450    26.4640    24.5940 na         1 MOL       0.003900
     13 C7          35.9490    26.2980    24.2100 c3         1 MOL       0.009600
     14 C8          33.5250    25.7380    24.0250 cd         1 MOL      -0.112300
     15 C9          34.8440    28.2030    26.3690 c          1 MOL       0.708700
     16 O2          36.0560    28.2670    26.2570 o          1 MOL      -0.605100
     17 N6          34.2010    28.8330    27.3800 ns         1 MOL      -0.437100
     18 C10         34.7910    29.6460    28.3440 cc         1 MOL      -0.029400
     19 C11         34.2680    30.0060    29.6110 cc         1 MOL      -0.161000
     20 C12         35.2220    30.8070    30.2060 cd         1 MOL      -0.216900
     21 N7          36.2960    30.9440    29.3380 na         1 MOL       0.004900
     22 C13         37.5300    31.7010    29.5400 c3         1 MOL       0.013600
     23 C14         36.0260    30.2190    28.2010 cd         1 MOL      -0.105300
     24 C15         35.2270    31.4470    31.5400 c          1 MOL       0.733700
     25 O3          36.0930    32.1700    31.9920 o          1 MOL      -0.691100
     26 N8          34.1510    31.1700    32.2870 ns         1 MOL      -0.574900
     27 C16         33.9920    31.6320    33.6710 c3         1 MOL       0.110000
     28 C17         32.5170    31.6270    34.0850 c3         1 MOL      -0.193700
     29 C18         32.1760    32.3470    35.3570 c2         1 MOL       0.448800
     30 N9          32.8430    33.3930    35.7870 nv         1 MOL      -0.467100
     31 N10         31.1400    31.9800    36.0620 nv         1 MOL      -0.451200
     32 H1          26.7850    25.7870    21.7900 hn         1 MOL       0.329700
     33 H2          25.8350    24.9130    20.6100 hn         1 MOL       0.329700
     34 H3          28.1840    22.5110    19.9780 hn         1 MOL       0.329700
     35 H4          26.5900    23.1460    19.6320 hn         1 MOL       0.329700
     36 H5          29.4910    23.4740    21.5350 hn         1 MOL       0.353700
     37 H6          28.6190    25.0020    23.6210 h1         1 MOL       0.084200
     38 H7          28.9270    26.1760    22.3690 h1         1 MOL       0.084200
     39 H8          30.3930    26.5740    24.4470 hn         1 MOL       0.329500
     40 H9          31.8060    27.9090    25.7700 ha         1 MOL       0.153000
     41 H10         36.0350    25.4850    23.4900 h1         1 MOL       0.076700
     42 H11         36.3150    27.2210    23.7600 h1         1 MOL       0.076700
     43 H12         36.5430    26.0650    25.0940 h1         1 MOL       0.076700
     44 H13         33.5130    24.8660    23.3870 h4         1 MOL       0.209000
     45 H14         33.2010    28.7320    27.4830 hn         1 MOL       0.326500
     46 H15         33.2960    29.6470    29.9160 ha         1 MOL       0.150000
     47 H16         38.1670    31.6000    28.6610 h1         1 MOL       0.071700
     48 H17         37.2900    32.7530    29.6950 h1         1 MOL       0.071700
     49 H18         38.0540    31.3150    30.4140 h1         1 MOL       0.071700
     50 H19         36.5960    30.0540    27.2990 h4         1 MOL       0.220000
     51 H20         33.3980    30.6180    31.9020 hn         1 MOL       0.336500
     52 H21         34.3920    32.6420    33.7650 h1         1 MOL       0.073200
     53 H22         34.5580    30.9820    34.3380 h1         1 MOL       0.073200
     54 H23         32.1660    30.5970    34.1500 hc         1 MOL       0.108700
     55 H24         31.9140    32.0310    33.2710 hc         1 MOL       0.108700
     56 H25         32.5740    33.8430    36.6500 hn         1 MOL       0.333700
     57 H26         33.6250    33.7470    35.2550 hn         1 MOL       0.333700
     58 H27         30.9130    32.4670    36.9170 hn         1 MOL       0.333700
     59 H28         30.5650    31.2090    35.7520 hn         1 MOL       0.333700
@<TRIPOS>BOND
     1     1     2 2   
     2     1     3 1   
     3     1     4 1   
     4     2    32 1   
     5     2    33 1   
     6     3    34 1   
     7     3    35 1   
     8     4     5 1   
     9     4    36 1   
    10     5     6 1   
    11     5    37 1   
    12     5    38 1   
    13     6     7 2   
    14     6     8 1   
    15     8     9 1   
    16     8    39 1   
    17     9    10 1   
    18     9    14 2   
    19    10    11 2   
    20    10    40 1   
    21    11    12 1   
    22    11    15 1   
    23    12    13 1   
    24    12    14 1   
    25    13    41 1   
    26    13    42 1   
    27    13    43 1   
    28    14    44 1   
    29    15    16 2   
    30    15    17 1   
    31    17    18 1   
    32    17    45 1   
    33    18    19 1   
    34    18    23 2   
    35    19    20 2   
    36    19    46 1   
    37    20    21 1   
    38    20    24 1   
    39    21    22 1   
    40    21    23 1   
    41    22    47 1   
    42    22    48 1   
    43    22    49 1   
    44    23    50 1   
    45    24    25 2   
    46    24    26 1   
    47    26    27 1   
    48    26    51 1   
    49    27    28 1   
    50    27    52 1   
    51    27    53 1   
    52    28    29 1   
    53    28    54 1   
    54    28    55 1   
    55    29    30 2   
    56    29    31 1   
    57    30    56 1   
    58    30    57 1   
    59    31    58 1   
    60    31    59 1   
@<TRIPOS>SUBSTRUCTURE
     1 MOL         1 TEMP              0 ****  ****    0 ROOT
