@<TRIPOS>MOLECULE
MOL
   56    61     1     0     0
SMALL
bcc


@<TRIPOS>ATOM
      1 C1          10.3930    18.6180    15.7940 ca         1 MOL      -0.074000
      2 C2           9.1930    19.9490    13.3910 ca         1 MOL      -0.132900
      3 C3          11.1340    19.3700    14.8210 ca         1 MOL      -0.135000
      4 C4          10.5420    20.0170    13.6600 ca         1 MOL      -0.099000
      5 C5           8.9580    18.6250    15.3860 ca         1 MOL       0.014900
      6 C6           8.3900    19.2650    14.2430 ca         1 MOL      -0.048000
      7 C7           8.6410    20.6170    12.2420 cc         1 MOL       0.492400
      8 C8           8.5090    21.6960    10.3010 ca         1 MOL      -0.080200
      9 C9           7.1990    21.5340    10.8550 ca         1 MOL       0.096400
     10 C10          5.9990    22.0460    10.1680 ca         1 MOL      -0.071000
     11 C11          6.2600    22.7250     8.8910 ca         1 MOL      -0.106000
     12 C12          7.6020    22.8590     8.3760 ca         1 MOL      -0.123900
     13 C13          8.7010    22.3620     9.0600 ca         1 MOL      -0.115000
     14 N1           9.3690    21.0980    11.2220 na         1 MOL      -0.280300
     15 N2           7.3330    20.8750    12.0240 nd         1 MOL      -0.553100
     16 C14          7.8340    23.4830     7.0840 cc         1 MOL       0.507400
     17 C15          8.6670    24.0750     5.0680 ca         1 MOL      -0.080200
     18 C16          7.4940    24.8580     5.3100 ca         1 MOL       0.092400
     19 C17          6.9910    25.8660     4.3400 ca         1 MOL      -0.054000
     20 C18          7.7610    26.0100     3.1190 ca         1 MOL      -0.178000
     21 C19          8.9770    25.1840     2.8860 ca         1 MOL       0.046600
     22 C20          9.4260    24.2290     3.8410 ca         1 MOL      -0.089000
     23 N3           8.7780    23.2720     6.2120 na         1 MOL      -0.276300
     24 N4           7.0170    24.4880     6.5200 nd         1 MOL      -0.553100
     25 N5           9.7160    25.3800     1.6340 nh         1 MOL      -0.616000
     26 N6          11.5500    26.1410    -0.5840 nx         1 MOL      -0.683400
     27 C21          9.2600    26.5530     0.5970 c3         1 MOL       0.145800
     28 C22         10.0960    26.2570    -0.7400 c3         1 MOL       0.105800
     29 C23         11.8990    24.9710     0.4080 c3         1 MOL       0.105800
     30 C24         11.2600    25.2260     1.7450 c3         1 MOL       0.145800
     31 C25         11.6880    25.3560    -1.7300 c3         1 MOL       0.084100
     32 I1           7.5430    17.6140    16.5670 i          1 MOL      -0.117900
     33 H1          10.9030    18.1720    16.6350 ha         1 MOL       0.153000
     34 H2          12.2030    19.4840    14.9260 ha         1 MOL       0.145000
     35 H3          11.1980    20.5640    12.9990 ha         1 MOL       0.133000
     36 H4           7.3280    19.2070    14.0550 ha         1 MOL       0.169000
     37 H5           5.0230    21.9080    10.6100 ha         1 MOL       0.163000
     38 H6           5.4400    23.1350     8.3200 ha         1 MOL       0.158000
     39 H7           9.6970    22.4770     8.6570 ha         1 MOL       0.133000
     40 H8          10.3730    20.9890    11.2230 hn         1 MOL       0.309700
     41 H9           6.1030    26.4370     4.5660 ha         1 MOL       0.164000
     42 H10          7.4540    26.7220     2.3680 ha         1 MOL       0.124000
     43 H11         10.3070    23.6270     3.6720 ha         1 MOL       0.149000
     44 H12          9.4930    22.5840     6.3990 hn         1 MOL       0.313700
     45 H13         12.0910    26.9920    -0.5230 hn         1 MOL       0.445800
     46 H14          9.5520    27.5230     0.9980 h1         1 MOL       0.080700
     47 H15          8.1950    26.4550     0.3860 h1         1 MOL       0.080700
     48 H16          9.7120    25.3520    -1.2110 hx         1 MOL       0.107700
     49 H17          9.8740    27.0260    -1.4800 hx         1 MOL       0.107700
     50 H18         12.9800    24.9080     0.5290 hx         1 MOL       0.107700
     51 H19         11.5300    24.0290     0.0030 hx         1 MOL       0.107700
     52 H20         11.4950    24.4040     2.4220 h1         1 MOL       0.080700
     53 H21         11.6840    26.1300     2.1830 h1         1 MOL       0.080700
     54 H22         12.7380    25.1020    -1.8730 hx         1 MOL       0.104700
     55 H23         11.1060    24.4420    -1.6170 hx         1 MOL       0.104700
     56 H24         11.3280    25.9110    -2.5960 hx         1 MOL       0.104700
@<TRIPOS>BOND
     1     1     3 ar  
     2     1     5 ar  
     3     1    33 1   
     4     2     4 ar  
     5     2     6 ar  
     6     2     7 1   
     7     3     4 ar  
     8     3    34 1   
     9     4    35 1   
    10     5     6 ar  
    11     5    32 1   
    12     6    36 1   
    13     7    14 1   
    14     7    15 2   
    15     8     9 ar  
    16     8    13 ar  
    17     8    14 1   
    18     9    10 ar  
    19     9    15 1   
    20    10    11 ar  
    21    10    37 1   
    22    11    12 ar  
    23    11    38 1   
    24    12    13 ar  
    25    12    16 1   
    26    13    39 1   
    27    14    40 1   
    28    16    23 1   
    29    16    24 2   
    30    17    18 ar  
    31    17    22 ar  
    32    17    23 1   
    33    18    19 ar  
    34    18    24 1   
    35    19    20 ar  
    36    19    41 1   
    37    20    21 ar  
    38    20    42 1   
    39    21    22 ar  
    40    21    25 1   
    41    22    43 1   
    42    23    44 1   
    43    25    27 1   
    44    25    30 1   
    45    26    28 1   
    46    26    29 1   
    47    26    31 1   
    48    26    45 1   
    49    27    28 1   
    50    27    46 1   
    51    27    47 1   
    52    28    48 1   
    53    28    49 1   
    54    29    30 1   
    55    29    50 1   
    56    29    51 1   
    57    30    52 1   
    58    30    53 1   
    59    31    54 1   
    60    31    55 1   
    61    31    56 1   
@<TRIPOS>SUBSTRUCTURE
     1 MOL         1 TEMP              0 ****  ****    0 ROOT
