
                    3D
 Schrodinger Suite 2021-1.
 56 61  0  0  1  0            999 V2000
   10.3930   18.6180   15.7940 C   0  0  0  0  0  0
    9.1930   19.9490   13.3910 C   0  0  0  0  0  0
   11.1340   19.3700   14.8210 C   0  0  0  0  0  0
   10.5420   20.0170   13.6600 C   0  0  0  0  0  0
    8.9580   18.6250   15.3860 C   0  0  0  0  0  0
    8.3900   19.2650   14.2430 C   0  0  0  0  0  0
    8.6410   20.6170   12.2420 C   0  0  0  0  0  0
    8.5090   21.6960   10.3010 C   0  0  0  0  0  0
    7.1990   21.5340   10.8550 C   0  0  0  0  0  0
    5.9990   22.0460   10.1680 C   0  0  0  0  0  0
    6.2600   22.7250    8.8910 C   0  0  0  0  0  0
    7.6020   22.8590    8.3760 C   0  0  0  0  0  0
    8.7010   22.3620    9.0600 C   0  0  0  0  0  0
    9.3690   21.0980   11.2220 N   0  0  0  0  0  0
    7.3330   20.8750   12.0240 N   0  0  0  0  0  0
    7.8340   23.4830    7.0840 C   0  0  0  0  0  0
    8.6670   24.0750    5.0680 C   0  0  0  0  0  0
    7.4940   24.8580    5.3100 C   0  0  0  0  0  0
    6.9910   25.8660    4.3400 C   0  0  0  0  0  0
    7.7610   26.0100    3.1190 C   0  0  0  0  0  0
    8.9770   25.1840    2.8860 C   0  0  0  0  0  0
    9.4260   24.2290    3.8410 C   0  0  0  0  0  0
    8.7780   23.2720    6.2120 N   0  0  0  0  0  0
    7.0170   24.4880    6.5200 N   0  0  0  0  0  0
    9.7160   25.3800    1.6340 N   0  0  0  0  0  0
   11.5500   26.1410   -0.5840 N   0  3  0  0  0  0
    9.2600   26.5530    0.5970 C   0  0  0  0  0  0
   10.0960   26.2570   -0.7400 C   0  0  0  0  0  0
   11.8990   24.9710    0.4080 C   0  0  0  0  0  0
   11.2600   25.2260    1.7450 C   0  0  0  0  0  0
   11.6880   25.3560   -1.7300 C   0  0  0  0  0  0
    7.5430   17.6140   16.5670 I   0  0  0  0  0  0
   10.9035   18.1716   16.6346 H   0  0  0  0  0  0
   12.2029   19.4836   14.9260 H   0  0  0  0  0  0
   11.1976   20.5641   12.9987 H   0  0  0  0  0  0
    7.3281   19.2069   14.0549 H   0  0  0  0  0  0
    5.0234   21.9078   10.6101 H   0  0  0  0  0  0
    5.4401   23.1346    8.3198 H   0  0  0  0  0  0
    9.6965   22.4774    8.6574 H   0  0  0  0  0  0
   10.3731   20.9892   11.2228 H   0  0  0  0  0  0
    6.1027   26.4370    4.5664 H   0  0  0  0  0  0
    7.4537   26.7223    2.3676 H   0  0  0  0  0  0
   10.3066   23.6271    3.6716 H   0  0  0  0  0  0
    9.4930   22.5835    6.3985 H   0  0  0  0  0  0
   12.0905   26.9921   -0.5235 H   0  0  0  0  0  0
    9.5524   27.5234    0.9983 H   0  0  0  0  0  0
    8.1951   26.4546    0.3862 H   0  0  0  0  0  0
    9.7119   25.3522   -1.2110 H   0  0  0  0  0  0
    9.8743   27.0260   -1.4800 H   0  0  0  0  0  0
   12.9805   24.9077    0.5286 H   0  0  0  0  0  0
   11.5295   24.0290    0.0027 H   0  0  0  0  0  0
   11.4947   24.4043    2.4216 H   0  0  0  0  0  0
   11.6839   26.1296    2.1830 H   0  0  0  0  0  0
   12.7383   25.1019   -1.8727 H   0  0  0  0  0  0
   11.1056   24.4416   -1.6169 H   0  0  0  0  0  0
   11.3279   25.9107   -2.5965 H   0  0  0  0  0  0
  1  3  2  0  0  0
  1  5  1  0  0  0
  1 33  1  0  0  0
  2  4  2  0  0  0
  2  6  1  0  0  0
  2  7  1  0  0  0
  3  4  1  0  0  0
  3 34  1  0  0  0
  4 35  1  0  0  0
  5  6  2  0  0  0
  5 32  1  0  0  0
  6 36  1  0  0  0
  7 14  1  0  0  0
  7 15  2  0  0  0
  8  9  2  0  0  0
  8 13  1  0  0  0
  8 14  1  0  0  0
  9 10  1  0  0  0
  9 15  1  0  0  0
 10 11  2  0  0  0
 10 37  1  0  0  0
 11 12  1  0  0  0
 11 38  1  0  0  0
 12 13  2  0  0  0
 12 16  1  0  0  0
 13 39  1  0  0  0
 14 40  1  0  0  0
 16 23  1  0  0  0
 16 24  2  0  0  0
 17 18  2  0  0  0
 17 22  1  0  0  0
 17 23  1  0  0  0
 18 19  1  0  0  0
 18 24  1  0  0  0
 19 20  2  0  0  0
 19 41  1  0  0  0
 20 21  1  0  0  0
 20 42  1  0  0  0
 21 22  2  0  0  0
 21 25  1  0  0  0
 22 43  1  0  0  0
 23 44  1  0  0  0
 25 27  1  0  0  0
 25 30  1  0  0  0
 26 28  1  0  0  0
 26 29  1  0  0  0
 26 31  1  0  0  0
 26 45  1  0  0  0
 27 28  1  0  0  0
 27 46  1  0  0  0
 27 47  1  0  0  0
 28 48  1  0  0  0
 28 49  1  0  0  0
 29 30  1  0  0  0
 29 50  1  0  0  0
 29 51  1  0  0  0
 30 52  1  0  0  0
 30 53  1  0  0  0
 31 54  1  0  0  0
 31 55  1  0  0  0
 31 56  1  0  0  0
M  CHG  1  26   1
M  END
> <s_pdb_PDB_format_version>
3.0

> <b_ppw_prepared>
1

> <s_ppw_prepared_with_version>
2021-1

> <s_ppw_het_states>
eJztmE1y5CAMha/i8tpFoR8QmqukcoPU7GaVyt0H0QhTmW3S4+7Qi0Yy9Gss/NUDv++w/9pe6geOLb4e2wv2lnrLvU29zb2V3pbeam8heuCK4JLgmuCi4KrgsuC64MLgyujKOObqyujK6MroyliVoQWujK6MrkyuTK5MTdkiK0xVxzaVY0uudmzcr9Ywn1elh9QGQC9d7mNraNLQKwg8xamPqdPTM7Sigcc+vPZbnUfss2oXwWdbA/A/a8G4D0t8zhYgzYnfmK2FLcNIcKjJ/BubmU4J+jTtqq0a+vLZyoEvoanhSEZhrQwyJeQ3aitpa3cmOiU0pGUepi5QsxiUuCq+75DqUw8haq5T3ZFrZp2xdu4cWx+W3DLuGcnHsf3+8/Z2+26PxoLmf0GDEzROx4LmO6CplGCBBs0NBeCYHRrrZDgxIRF6akxGgR8Dk+Utd8SEikzegpknN+E4zISD5MyLkutQsszkjpRwoclMUHXiQvJTY/Fge6yrmAfOWIyH/7mwSEVhMg9JVqMd6QZJ32PdrEQZ4EqYjLVamKw91ndjooyGST98ZGjn9wZGCqLK51FEmdKVMPnpbnKVTdZPcJNcUKZNlmjC000I5FKvsr7cPx7s9LH8435gKEU1MJpj5IDC5I5R/YPSpY7la2N1DTCe3zEwIHFzjO4Rynm8vMqBSfVKYHz5Vupfx4gLjOUYBgZH4nEwx5BRycHAIFnL6R+lfKLk9eMvsDB/6Q==

$$$$
