@<TRIPOS>MOLECULE
MOL
   66    70     1     0     0
SMALL
bcc


@<TRIPOS>ATOM
      1 C1           7.4600    17.7100    17.5880 ca         1 MOL      -0.124000
      2 C2           8.8640    17.7940    17.3060 ca         1 MOL      -0.103000
      3 C3           9.3660    18.4890    16.1970 ca         1 MOL      -0.037200
      4 C4           8.4350    19.1100    15.3460 ca         1 MOL      -0.049000
      5 C5           7.0570    19.0150    15.6550 ca         1 MOL      -0.224000
      6 C6           6.5190    18.3380    16.7440 ca         1 MOL       0.233600
      7 N1          10.7270    18.5770    15.8840 na         1 MOL      -0.025500
      8 C7          11.1370    19.2760    14.7480 ca         1 MOL       0.071000
      9 C8          10.2110    19.9000    13.9050 ca         1 MOL      -0.290000
     10 C9           8.8500    19.8190    14.1760 ca         1 MOL       0.314600
     11 N2           7.9200    20.3830    13.3250 nu         1 MOL      -0.601000
     12 C10          7.9720    20.9990    12.1060 ca         1 MOL       0.175600
     13 C11          9.0620    21.1040    11.2580 ca         1 MOL      -0.212000
     14 C12          8.9290    21.7870    10.0550 ca         1 MOL      -0.032000
     15 C13          7.6870    22.3820     9.7090 ca         1 MOL      -0.239600
     16 C14          6.5640    22.2690    10.5800 ca         1 MOL       0.269600
     17 C15          6.7600    21.5740    11.7530 ca         1 MOL      -0.235000
     18 C16          7.6060    23.0700     8.4780 c          1 MOL       0.697700
     19 O1           6.5270    23.4360     7.9560 o          1 MOL      -0.586100
     20 N3           8.7400    23.3300     7.8730 ns         1 MOL      -0.468100
     21 C17          8.8340    23.9720     6.7300 ca         1 MOL       0.101600
     22 C18          9.9560    23.6160     6.0000 ca         1 MOL      -0.158000
     23 C19         10.1750    24.2520     4.7830 ca         1 MOL      -0.091000
     24 C20          9.2980    25.2630     4.2600 ca         1 MOL      -0.095200
     25 C21          8.1570    25.6010     5.0120 ca         1 MOL      -0.091000
     26 C22          7.9350    24.9520     6.2380 ca         1 MOL      -0.158000
     27 N4           9.4530    25.9430     3.0870 nu         1 MOL      -0.263200
     28 C23         10.5120    25.9020     2.2560 cc         1 MOL       0.272700
     29 C24         10.4610    26.7190     1.1420 cc         1 MOL      -0.240500
     30 C25         11.5320    26.7230     0.2250 cd         1 MOL       0.040500
     31 N5          12.6410    25.9170     0.4120 na         1 MOL      -0.270200
     32 C26         12.6930    25.1000     1.5150 cd         1 MOL       0.040500
     33 C27         11.6490    25.1000     2.4100 cc         1 MOL      -0.240500
     34 C28         13.7900    25.8810    -0.5130 c3         1 MOL       0.161100
     35 C29         11.8330    17.9470    16.6400 c3         1 MOL      -0.016400
     36 N6           5.0730    18.3730    16.8740 nv         1 MOL      -0.856200
     37 N7           5.1960    22.7940    10.3830 nv         1 MOL      -0.837200
     38 H1           7.1150    17.1630    18.4530 ha         1 MOL       0.169000
     39 H2           9.5760    17.3110    17.9590 ha         1 MOL       0.162000
     40 H3           6.3270    19.4930    15.0190 ha         1 MOL       0.142000
     41 H4          12.1870    19.3430    14.5050 h4         1 MOL       0.191000
     42 H5          10.5530    20.4480    13.0390 ha         1 MOL       0.187000
     43 H6           6.9420    20.3890    13.5780 hn         1 MOL       0.467800
     44 H7          10.0060    20.6570    11.5340 ha         1 MOL       0.153000
     45 H8           9.7710    21.8660     9.3830 ha         1 MOL       0.149000
     46 H9           5.9090    21.4880    12.4130 ha         1 MOL       0.153000
     47 H10          9.6120    23.0320     8.2850 hn         1 MOL       0.327500
     48 H11         10.6310    22.8640     6.3800 ha         1 MOL       0.169000
     49 H12         11.0360    23.9920     4.1850 ha         1 MOL       0.151500
     50 H13          7.4700    26.3480     4.6440 ha         1 MOL       0.151500
     51 H14          7.0570    25.2140     6.8090 ha         1 MOL       0.169000
     52 H15          8.7220    26.5590     2.7600 hn         1 MOL       0.316700
     53 H16          9.6020    27.3520     0.9760 ha         1 MOL       0.190500
     54 H17         11.4970    27.3640    -0.6440 h4         1 MOL       0.201000
     55 H18         13.5500    24.4630     1.6750 h4         1 MOL       0.201000
     56 H19         11.7350    24.4420     3.2620 ha         1 MOL       0.190500
     57 H20         14.5300    25.1700    -0.1460 h1         1 MOL       0.091033
     58 H21         13.4510    25.5740    -1.5020 h1         1 MOL       0.091033
     59 H22         14.2390    26.8720    -0.5750 h1         1 MOL       0.091033
     60 H23         12.7830    18.1880    16.1630 h1         1 MOL       0.086367
     61 H24         11.8350    18.3230    17.6630 h1         1 MOL       0.086367
     62 H25         11.6960    16.8660    16.6510 h1         1 MOL       0.086367
     63 H26          4.5160    18.8650    16.1900 hn         1 MOL       0.450800
     64 H27          4.6240    17.9050    17.6480 hn         1 MOL       0.450800
     65 H28          4.4900    22.6400    11.0880 hn         1 MOL       0.443300
     66 H29          4.9680    23.3070     9.5430 hn         1 MOL       0.443300
@<TRIPOS>BOND
     1     1     2 ar  
     2     1     6 ar  
     3     1    38 1   
     4     2     3 ar  
     5     2    39 1   
     6     3     4 ar  
     7     3     7 1   
     8     4     5 ar  
     9     4    10 1   
    10     5     6 ar  
    11     5    40 1   
    12     6    36 1   
    13     7     8 2   
    14     7    35 1   
    15     8     9 1   
    16     8    41 1   
    17     9    10 2   
    18     9    42 1   
    19    10    11 1   
    20    11    12 1   
    21    11    43 1   
    22    12    13 ar  
    23    12    17 ar  
    24    13    14 ar  
    25    13    44 1   
    26    14    15 ar  
    27    14    45 1   
    28    15    16 ar  
    29    15    18 1   
    30    16    17 ar  
    31    16    37 1   
    32    17    46 1   
    33    18    19 2   
    34    18    20 1   
    35    20    21 1   
    36    20    47 1   
    37    21    22 ar  
    38    21    26 ar  
    39    22    23 ar  
    40    22    48 1   
    41    23    24 ar  
    42    23    49 1   
    43    24    25 ar  
    44    24    27 1   
    45    25    26 ar  
    46    25    50 1   
    47    26    51 1   
    48    27    28 2   
    49    27    52 1   
    50    28    29 1   
    51    28    33 1   
    52    29    30 2   
    53    29    53 1   
    54    30    31 1   
    55    30    54 1   
    56    31    32 1   
    57    31    34 1   
    58    32    33 2   
    59    32    55 1   
    60    33    56 1   
    61    34    57 1   
    62    34    58 1   
    63    34    59 1   
    64    35    60 1   
    65    35    61 1   
    66    35    62 1   
    67    36    63 1   
    68    36    64 1   
    69    37    65 1   
    70    37    66 1   
@<TRIPOS>SUBSTRUCTURE
     1 MOL         1 TEMP              0 ****  ****    0 ROOT
