
                    3D
 Schrodinger Suite 2021-1.
 66 70  0  0  1  0            999 V2000
    7.4600   17.7100   17.5880 C   0  0  0  0  0  0
    8.8640   17.7940   17.3060 C   0  0  0  0  0  0
    9.3660   18.4890   16.1970 C   0  0  0  0  0  0
    8.4350   19.1100   15.3460 C   0  0  0  0  0  0
    7.0570   19.0150   15.6550 C   0  0  0  0  0  0
    6.5190   18.3380   16.7440 C   0  0  0  0  0  0
   10.7270   18.5770   15.8840 N   0  0  0  0  0  0
   11.1370   19.2760   14.7480 C   0  0  0  0  0  0
   10.2110   19.9000   13.9050 C   0  0  0  0  0  0
    8.8500   19.8190   14.1760 C   0  0  0  0  0  0
    7.9200   20.3830   13.3250 N   0  3  0  0  0  0
    7.9720   20.9990   12.1060 C   0  0  0  0  0  0
    9.0620   21.1040   11.2580 C   0  0  0  0  0  0
    8.9290   21.7870   10.0550 C   0  0  0  0  0  0
    7.6870   22.3820    9.7090 C   0  0  0  0  0  0
    6.5640   22.2690   10.5800 C   0  0  0  0  0  0
    6.7600   21.5740   11.7530 C   0  0  0  0  0  0
    7.6060   23.0700    8.4780 C   0  0  0  0  0  0
    6.5270   23.4360    7.9560 O   0  0  0  0  0  0
    8.7400   23.3300    7.8730 N   0  0  0  0  0  0
    8.8340   23.9720    6.7300 C   0  0  0  0  0  0
    9.9560   23.6160    6.0000 C   0  0  0  0  0  0
   10.1750   24.2520    4.7830 C   0  0  0  0  0  0
    9.2980   25.2630    4.2600 C   0  0  0  0  0  0
    8.1570   25.6010    5.0120 C   0  0  0  0  0  0
    7.9350   24.9520    6.2380 C   0  0  0  0  0  0
    9.4530   25.9430    3.0870 N   0  0  0  0  0  0
   10.5120   25.9020    2.2560 C   0  0  0  0  0  0
   10.4610   26.7190    1.1420 C   0  0  0  0  0  0
   11.5320   26.7230    0.2250 C   0  0  0  0  0  0
   12.6410   25.9170    0.4120 N   0  3  0  0  0  0
   12.6930   25.1000    1.5150 C   0  0  0  0  0  0
   11.6490   25.1000    2.4100 C   0  0  0  0  0  0
   13.7900   25.8810   -0.5130 C   0  0  0  0  0  0
   11.8330   17.9470   16.6400 C   0  0  0  0  0  0
    5.0730   18.3730   16.8740 N   0  0  0  0  0  0
    5.1960   22.7940   10.3830 N   0  0  0  0  0  0
    7.1147   17.1626   18.4526 H   0  0  0  0  0  0
    9.5758   17.3114   17.9593 H   0  0  0  0  0  0
    6.3268   19.4932   15.0190 H   0  0  0  0  0  0
   12.1872   19.3431   14.5050 H   0  0  0  0  0  0
   10.5525   20.4477   13.0391 H   0  0  0  0  0  0
    6.9422   20.3892   13.5781 H   0  0  0  0  0  0
   10.0057   20.6570   11.5337 H   0  0  0  0  0  0
    9.7706   21.8655    9.3827 H   0  0  0  0  0  0
    5.9091   21.4881   12.4126 H   0  0  0  0  0  0
    9.6124   23.0317    8.2854 H   0  0  0  0  0  0
   10.6313   22.8637    6.3801 H   0  0  0  0  0  0
   11.0360   23.9921    4.1851 H   0  0  0  0  0  0
    7.4696   26.3482    4.6439 H   0  0  0  0  0  0
    7.0566   25.2142    6.8090 H   0  0  0  0  0  0
    8.7223   26.5588    2.7599 H   0  0  0  0  0  0
    9.6021   27.3523    0.9757 H   0  0  0  0  0  0
   11.4967   27.3637   -0.6437 H   0  0  0  0  0  0
   13.5502   24.4628    1.6751 H   0  0  0  0  0  0
   11.7345   24.4423    3.2624 H   0  0  0  0  0  0
   14.5303   25.1701   -0.1461 H   0  0  0  0  0  0
   13.4511   25.5738   -1.5024 H   0  0  0  0  0  0
   14.2386   26.8725   -0.5748 H   0  0  0  0  0  0
   12.7831   18.1878   16.1632 H   0  0  0  0  0  0
   11.8349   18.3230   17.6631 H   0  0  0  0  0  0
   11.6964   16.8656   16.6512 H   0  0  0  0  0  0
    4.5162   18.8650   16.1899 H   0  0  0  0  0  0
    4.6241   17.9053   17.6485 H   0  0  0  0  0  0
    4.4896   22.6400   11.0882 H   0  0  0  0  0  0
    4.9679   23.3066    9.5432 H   0  0  0  0  0  0
  1  2  2  0  0  0
  1  6  1  0  0  0
  1 38  1  0  0  0
  2  3  1  0  0  0
  2 39  1  0  0  0
  3  4  2  0  0  0
  3  7  1  0  0  0
  4  5  1  0  0  0
  4 10  1  0  0  0
  5  6  2  0  0  0
  5 40  1  0  0  0
  6 36  1  0  0  0
  7  8  1  0  0  0
  7 35  1  0  0  0
  8  9  2  0  0  0
  8 41  1  0  0  0
  9 10  1  0  0  0
  9 42  1  0  0  0
 10 11  2  0  0  0
 11 12  1  0  0  0
 11 43  1  0  0  0
 12 13  2  0  0  0
 12 17  1  0  0  0
 13 14  1  0  0  0
 13 44  1  0  0  0
 14 15  2  0  0  0
 14 45  1  0  0  0
 15 16  1  0  0  0
 15 18  1  0  0  0
 16 17  2  0  0  0
 16 37  1  0  0  0
 17 46  1  0  0  0
 18 19  2  0  0  0
 18 20  1  0  0  0
 20 21  1  0  0  0
 20 47  1  0  0  0
 21 22  2  0  0  0
 21 26  1  0  0  0
 22 23  1  0  0  0
 22 48  1  0  0  0
 23 24  2  0  0  0
 23 49  1  0  0  0
 24 25  1  0  0  0
 24 27  1  0  0  0
 25 26  2  0  0  0
 25 50  1  0  0  0
 26 51  1  0  0  0
 27 28  1  0  0  0
 27 52  1  0  0  0
 28 29  2  0  0  0
 28 33  1  0  0  0
 29 30  1  0  0  0
 29 53  1  0  0  0
 30 31  2  0  0  0
 30 54  1  0  0  0
 31 32  1  0  0  0
 31 34  1  0  0  0
 32 33  2  0  0  0
 32 55  1  0  0  0
 33 56  1  0  0  0
 34 57  1  0  0  0
 34 58  1  0  0  0
 34 59  1  0  0  0
 35 60  1  0  0  0
 35 61  1  0  0  0
 35 62  1  0  0  0
 36 63  1  0  0  0
 36 64  1  0  0  0
 37 65  1  0  0  0
 37 66  1  0  0  0
M  CHG  2  11   1  31   1
M  END
> <s_pdb_PDB_format_version>
3.0

> <b_ppw_prepared>
1

> <s_ppw_prepared_with_version>
2021-1

> <s_ppw_het_states>
eJxNk0FuwzAMBL8i+OwWJunYcb4S+AdBbz0F+Xu5KkdJDuaSkMbrJfKcbLq1e/5sbss5t7tXjapr1UvVrepe9Vr1qGoLIonWBUiDaUANqoE1uAbYIDtkH14hO2SH7JAdskN2yA45IAeeY8QAOSAH5IAcnSylFPOmd99z24qWowA8t7UOpNxrmqPLWypCq8y3Opw1wOWt61sGN3N21OnjA9KFYUof6B+L0U58NPjRVEsytqVFORszjPQGK326c0x+B01HsKbG8SbhZC7hpNebkZ+mJCjhZNgFAfSGl2rqpKepY1TCsaMmBjqngTeJIDeJILfekI6m0UPM7mv5zlvPad3zX6XmNbef38fj/3merz9isLdT

$$$$
