@<TRIPOS>MOLECULE
MOL
   60    65     1     0     0
SMALL
bcc


@<TRIPOS>ATOM
      1 C1          10.3910    18.8520    15.8050 ca         1 MOL       0.186100
      2 C2           9.1990    20.0510    13.3070 ca         1 MOL      -0.175900
      3 C3          11.1030    19.6600    14.8540 ca         1 MOL      -0.215000
      4 C4          10.5190    20.2420    13.6390 ca         1 MOL      -0.060000
      5 C5           8.9950    18.7320    15.3130 ca         1 MOL      -0.017100
      6 C6           8.4170    19.2980    14.1280 ca         1 MOL      -0.018000
      7 O1          10.9970    18.2450    17.0810 os         1 MOL      -0.307900
      8 C7           8.6650    20.6590    12.1470 cc         1 MOL       0.502400
      9 C8           8.5270    21.6550    10.1830 ca         1 MOL      -0.081200
     10 C9           7.2240    21.5460    10.7720 ca         1 MOL       0.098400
     11 C10          6.0210    22.0550    10.1060 ca         1 MOL      -0.072000
     12 C11          6.2710    22.6800     8.8070 ca         1 MOL      -0.106000
     13 C12          7.6030    22.7710     8.2570 ca         1 MOL      -0.126900
     14 C13          8.7050    22.2670     8.9240 ca         1 MOL      -0.115000
     15 N1           9.3870    21.0750    11.0970 na         1 MOL      -0.283300
     16 N2           7.3760    20.9350    11.9560 nd         1 MOL      -0.558100
     17 C14          7.8360    23.4190     6.9730 cc         1 MOL       0.508400
     18 C15          8.7120    24.0760     5.0060 ca         1 MOL      -0.081200
     19 C16          7.4620    24.7390     5.1750 ca         1 MOL       0.092400
     20 C17          6.9190    25.6820     4.1700 ca         1 MOL      -0.054000
     21 C18          7.7390    25.8870     2.9910 ca         1 MOL      -0.178000
     22 C19          9.0390    25.1820     2.8360 ca         1 MOL       0.046600
     23 C20          9.5210    24.2890     3.8270 ca         1 MOL      -0.089000
     24 N3           8.8370    23.3030     6.1530 na         1 MOL      -0.277300
     25 N4           6.9540    24.3370     6.3560 nd         1 MOL      -0.553100
     26 N5           9.8350    25.4080     1.6390 nh         1 MOL      -0.616000
     27 N6          11.5550    26.1980    -0.7390 nx         1 MOL      -0.683400
     28 C21          9.3940    26.4790     0.5870 c3         1 MOL       0.145800
     29 C22         10.0730    26.3200    -0.7640 c3         1 MOL       0.105800
     30 C23         11.9930    25.1430     0.2880 c3         1 MOL       0.105800
     31 C24         11.3970    25.5990     1.7090 c3         1 MOL       0.145800
     32 C25         11.8530    25.4850    -1.9990 c3         1 MOL       0.084100
     33 I1           7.6430    17.6110    16.4250 i          1 MOL      -0.099900
     34 C26         12.0250    18.5750    18.1550 c3         1 MOL       0.109700
     35 H1          12.1490    19.8790    15.0080 ha         1 MOL       0.148000
     36 H2          11.1570    20.8340    12.9990 ha         1 MOL       0.133000
     37 H3           7.3780    19.1340    13.8830 ha         1 MOL       0.171000
     38 H4           5.0560    21.9510    10.5800 ha         1 MOL       0.163000
     39 H5           5.4490    23.0870     8.2360 ha         1 MOL       0.157000
     40 H6           9.6930    22.3370     8.4930 ha         1 MOL       0.133000
     41 H7          10.3870    20.9350    11.0850 hn         1 MOL       0.308700
     42 H8           5.9690    26.1660     4.3420 ha         1 MOL       0.164000
     43 H9           7.4070    26.5580     2.2130 ha         1 MOL       0.123000
     44 H10         10.4640    23.7740     3.7190 ha         1 MOL       0.149000
     45 H11          9.6080    22.6920     6.3810 hn         1 MOL       0.313700
     46 H12         12.0360    27.0810    -0.6470 hn         1 MOL       0.445800
     47 H13          9.5970    27.4760     0.9790 h1         1 MOL       0.080700
     48 H14          8.3130    26.4340     0.4560 h1         1 MOL       0.080700
     49 H15          9.6500    25.4580    -1.2800 hx         1 MOL       0.107700
     50 H16          9.7920    27.1530    -1.4080 hx         1 MOL       0.107700
     51 H17         13.0810    25.1200     0.3420 hx         1 MOL       0.107700
     52 H18         11.5750    24.1740     0.0130 hx         1 MOL       0.107700
     53 H19         11.8050    24.9630     2.4940 h1         1 MOL       0.080700
     54 H20         11.6260    26.6510     1.8780 h1         1 MOL       0.080700
     55 H21         12.9290    25.3380    -2.0880 hx         1 MOL       0.104700
     56 H22         11.3540    24.5160    -1.9960 hx         1 MOL       0.104700
     57 H23         11.4960    26.0740    -2.8440 hx         1 MOL       0.104700
     58 H24         12.0740    17.7580    18.8750 h1         1 MOL       0.053033
     59 H25         13.0030    18.7110    17.6930 h1         1 MOL       0.053033
     60 H26         11.7350    19.4920    18.6670 h1         1 MOL       0.053033
@<TRIPOS>BOND
     1     1     3 ar  
     2     1     5 ar  
     3     1     7 1   
     4     2     4 ar  
     5     2     6 ar  
     6     2     8 1   
     7     3     4 ar  
     8     3    35 1   
     9     4    36 1   
    10     5     6 ar  
    11     5    33 1   
    12     6    37 1   
    13     7    34 1   
    14     8    15 1   
    15     8    16 2   
    16     9    10 ar  
    17     9    14 ar  
    18     9    15 1   
    19    10    11 ar  
    20    10    16 1   
    21    11    12 ar  
    22    11    38 1   
    23    12    13 ar  
    24    12    39 1   
    25    13    14 ar  
    26    13    17 1   
    27    14    40 1   
    28    15    41 1   
    29    17    24 1   
    30    17    25 2   
    31    18    19 ar  
    32    18    23 ar  
    33    18    24 1   
    34    19    20 ar  
    35    19    25 1   
    36    20    21 ar  
    37    20    42 1   
    38    21    22 ar  
    39    21    43 1   
    40    22    23 ar  
    41    22    26 1   
    42    23    44 1   
    43    24    45 1   
    44    26    28 1   
    45    26    31 1   
    46    27    29 1   
    47    27    30 1   
    48    27    32 1   
    49    27    46 1   
    50    28    29 1   
    51    28    47 1   
    52    28    48 1   
    53    29    49 1   
    54    29    50 1   
    55    30    31 1   
    56    30    51 1   
    57    30    52 1   
    58    31    53 1   
    59    31    54 1   
    60    32    55 1   
    61    32    56 1   
    62    32    57 1   
    63    34    58 1   
    64    34    59 1   
    65    34    60 1   
@<TRIPOS>SUBSTRUCTURE
     1 MOL         1 TEMP              0 ****  ****    0 ROOT
