
                    3D
 Schrodinger Suite 2021-1.
 60 65  0  0  1  0            999 V2000
   10.3910   18.8520   15.8050 C   0  0  0  0  0  0
    9.1990   20.0510   13.3070 C   0  0  0  0  0  0
   11.1030   19.6600   14.8540 C   0  0  0  0  0  0
   10.5190   20.2420   13.6390 C   0  0  0  0  0  0
    8.9950   18.7320   15.3130 C   0  0  0  0  0  0
    8.4170   19.2980   14.1280 C   0  0  0  0  0  0
   10.9970   18.2450   17.0810 O   0  0  0  0  0  0
    8.6650   20.6590   12.1470 C   0  0  0  0  0  0
    8.5270   21.6550   10.1830 C   0  0  0  0  0  0
    7.2240   21.5460   10.7720 C   0  0  0  0  0  0
    6.0210   22.0550   10.1060 C   0  0  0  0  0  0
    6.2710   22.6800    8.8070 C   0  0  0  0  0  0
    7.6030   22.7710    8.2570 C   0  0  0  0  0  0
    8.7050   22.2670    8.9240 C   0  0  0  0  0  0
    9.3870   21.0750   11.0970 N   0  0  0  0  0  0
    7.3760   20.9350   11.9560 N   0  0  0  0  0  0
    7.8360   23.4190    6.9730 C   0  0  0  0  0  0
    8.7120   24.0760    5.0060 C   0  0  0  0  0  0
    7.4620   24.7390    5.1750 C   0  0  0  0  0  0
    6.9190   25.6820    4.1700 C   0  0  0  0  0  0
    7.7390   25.8870    2.9910 C   0  0  0  0  0  0
    9.0390   25.1820    2.8360 C   0  0  0  0  0  0
    9.5210   24.2890    3.8270 C   0  0  0  0  0  0
    8.8370   23.3030    6.1530 N   0  0  0  0  0  0
    6.9540   24.3370    6.3560 N   0  0  0  0  0  0
    9.8350   25.4080    1.6390 N   0  0  0  0  0  0
   11.5550   26.1980   -0.7390 N   0  3  0  0  0  0
    9.3940   26.4790    0.5870 C   0  0  0  0  0  0
   10.0730   26.3200   -0.7640 C   0  0  0  0  0  0
   11.9930   25.1430    0.2880 C   0  0  0  0  0  0
   11.3970   25.5990    1.7090 C   0  0  0  0  0  0
   11.8530   25.4850   -1.9990 C   0  0  0  0  0  0
    7.6430   17.6110   16.4250 I   0  0  0  0  0  0
   12.0250   18.5750   18.1550 C   0  0  0  0  0  0
   12.1492   19.8794   15.0079 H   0  0  0  0  0  0
   11.1566   20.8337   12.9989 H   0  0  0  0  0  0
    7.3779   19.1342   13.8833 H   0  0  0  0  0  0
    5.0562   21.9506   10.5801 H   0  0  0  0  0  0
    5.4492   23.0865    8.2362 H   0  0  0  0  0  0
    9.6926   22.3375    8.4926 H   0  0  0  0  0  0
   10.3871   20.9348   11.0845 H   0  0  0  0  0  0
    5.9689   26.1660    4.3416 H   0  0  0  0  0  0
    7.4074   26.5583    2.2127 H   0  0  0  0  0  0
   10.4643   23.7743    3.7192 H   0  0  0  0  0  0
    9.6082   22.6918    6.3808 H   0  0  0  0  0  0
   12.0356   27.0815   -0.6466 H   0  0  0  0  0  0
    9.5969   27.4757    0.9787 H   0  0  0  0  0  0
    8.3129   26.4336    0.4560 H   0  0  0  0  0  0
    9.6499   25.4580   -1.2798 H   0  0  0  0  0  0
    9.7916   27.1531   -1.4081 H   0  0  0  0  0  0
   13.0814   25.1197    0.3420 H   0  0  0  0  0  0
   11.5750   24.1745    0.0135 H   0  0  0  0  0  0
   11.8052   24.9629    2.4944 H   0  0  0  0  0  0
   11.6264   26.6511    1.8777 H   0  0  0  0  0  0
   12.9294   25.3380   -2.0881 H   0  0  0  0  0  0
   11.3536   24.5162   -1.9957 H   0  0  0  0  0  0
   11.4961   26.0743   -2.8437 H   0  0  0  0  0  0
   12.0744   17.7579   18.8747 H   0  0  0  0  0  0
   13.0028   18.7113   17.6931 H   0  0  0  0  0  0
   11.7346   19.4924   18.6670 H   0  0  0  0  0  0
  1  3  2  0  0  0
  1  5  1  0  0  0
  1  7  1  0  0  0
  2  4  2  0  0  0
  2  6  1  0  0  0
  2  8  1  0  0  0
  3  4  1  0  0  0
  3 35  1  0  0  0
  4 36  1  0  0  0
  5  6  2  0  0  0
  5 33  1  0  0  0
  6 37  1  0  0  0
  7 34  1  0  0  0
  8 15  1  0  0  0
  8 16  2  0  0  0
  9 10  2  0  0  0
  9 14  1  0  0  0
  9 15  1  0  0  0
 10 11  1  0  0  0
 10 16  1  0  0  0
 11 12  2  0  0  0
 11 38  1  0  0  0
 12 13  1  0  0  0
 12 39  1  0  0  0
 13 14  2  0  0  0
 13 17  1  0  0  0
 14 40  1  0  0  0
 15 41  1  0  0  0
 17 24  1  0  0  0
 17 25  2  0  0  0
 18 19  2  0  0  0
 18 23  1  0  0  0
 18 24  1  0  0  0
 19 20  1  0  0  0
 19 25  1  0  0  0
 20 21  2  0  0  0
 20 42  1  0  0  0
 21 22  1  0  0  0
 21 43  1  0  0  0
 22 23  2  0  0  0
 22 26  1  0  0  0
 23 44  1  0  0  0
 24 45  1  0  0  0
 26 28  1  0  0  0
 26 31  1  0  0  0
 27 29  1  0  0  0
 27 30  1  0  0  0
 27 32  1  0  0  0
 27 46  1  0  0  0
 28 29  1  0  0  0
 28 47  1  0  0  0
 28 48  1  0  0  0
 29 49  1  0  0  0
 29 50  1  0  0  0
 30 31  1  0  0  0
 30 51  1  0  0  0
 30 52  1  0  0  0
 31 53  1  0  0  0
 31 54  1  0  0  0
 32 55  1  0  0  0
 32 56  1  0  0  0
 32 57  1  0  0  0
 34 58  1  0  0  0
 34 59  1  0  0  0
 34 60  1  0  0  0
M  CHG  1  27   1
M  END
> <s_pdb_PDB_format_version>
3.0

> <b_ppw_prepared>
1

> <s_ppw_prepared_with_version>
2021-1

> <s_ppw_het_states>
eJztmMFu5CAMhl8lyjmKsMFg9lWqvkG1t56qvvtiwk9Y9VKtttU0YQ6DnTh/wMwnm3lbaf21PJUPbYt73pYnbqNvY2ijtDG2MbVR25jbSA4GFAmSBE2CKEGVIEvQJQgTlBnK3OcKZYYyQ5mhzFDmokzVgDJD2UPZQ9n3NEDZV2WzLFXlKtfJbYs02WL2N2xLaAHFjOdVbaavAdTyGltsMe111NLrEWJPyWAjvkzfst1txOch3gJsJ04H06lXGesoBuHd1cACqoOFmcFhdARhNrE8ONzVdHzGQtzoYKJ21TaWscO2uYRdZiS8Oj2jlgkdHI+V2mbb9nbHu9Hp0jqEWcghUDy3Z4ll1m8rxUII7ZRccVeW4tlNKY+tgeo9T0HNk8Nzmd635ffry8vxXX80VwSs5/0agPEAWAdpAvZlgOWkFbADG07aIQp74rtAdLEqNSH6Rohody4ODJFa4o4iZfdEhrIkmu5B1MXK0uz7vpcoVhr6Ps5Ozk4vuJyGIiXZ3wOpWaS+CikekergXAsp8SEMVSqR1ajQjlWcJ0I/EKEHqkq3QCiGOFSllDSeELGzSNSozP4xj0590yZSj47UHRo9pVyrUjstaZAOUdydpv5vBFuVuglS8+w0kfpXpAonUZMh1SCSYIs4IJI9p6gPCdF/b/U+QuQmRBOiT0JUDkvaWz3eo0uMusR74jggpd7f9vQ0kZpIfRqpmHlAStSeOho/3jnJX4CleDZ+H/q+5/c/Ys7ewg==

$$$$
