
                    3D
 Schrodinger Suite 2021-1.
 79 83  0  0  1  0            999 V2000
   -8.5940   -4.3320   -0.7200 C   0  0  0  0  0  0
   -7.9010   -0.4230    2.3210 N   0  0  0  0  0  0
   -8.7010   -2.0440   -1.5840 C   0  0  0  0  0  0
   -8.3060   -3.7860    0.5280 C   0  0  0  0  0  0
   -7.9360   -1.8340    2.1560 C   0  0  0  0  0  0
   -8.6230    3.7830   -3.4450 C   0  0  0  0  0  0
   -7.5720    4.0090    3.9920 C   0  0  0  0  0  0
   -7.0830    4.5400    6.3170 C   0  0  0  0  0  0
   -7.3740   -0.1260    4.8560 C   0  0  0  0  0  0
   -8.3600    4.9980   -2.7200 C   0  0  0  0  0  0
   -7.2170    2.1700    5.6460 C   0  0  0  0  0  0
   -8.7920   -3.4510   -1.7830 C   0  0  0  0  0  0
   -9.1690    2.5890   -5.5500 C   0  0  0  0  0  0
   -8.8850   -1.0850   -2.7830 C   0  0  0  0  0  0
   -9.1280    1.4150   -4.8170 C   0  0  0  0  0  0
   -8.6530    6.2850   -4.7680 C   0  0  0  0  0  0
   -8.7320    0.2910   -2.5130 N   0  0  0  0  0  0
   -8.2160   -2.3840    0.7360 C   0  0  0  0  0  0
   -8.8370    1.4100   -3.4050 C   0  0  0  0  0  0
   -8.9060    3.8360   -4.8570 C   0  0  0  0  0  0
   -8.3780    6.2170   -3.3790 C   0  0  0  0  0  0
   -7.1530    0.7440    5.9130 C   0  0  0  0  0  0
   -7.0100    3.1960    6.6460 C   0  0  0  0  0  0
  -10.4530    0.8310   -9.9490 N   0  3  0  0  0  0
  -10.0960    1.9860   -9.0520 C   0  0  0  0  0  0
   -9.8020    1.5000   -7.6180 C   0  0  0  0  0  0
   -9.4840    2.6980   -6.8960 O   0  0  0  0  0  0
   -8.5960    2.5550   -2.7520 N   0  0  0  0  0  0
   -8.9110    5.1350   -5.4960 C   0  0  0  0  0  0
   -9.1400   -1.5560   -3.8890 O   0  0  0  0  0  0
   -8.4160   -1.5370   -0.3300 N   0  0  0  0  0  0
   -8.6850   -5.7140   -0.6970 O   0  0  0  0  0  0
   -9.0220   -6.4990   -1.8440 C   0  0  0  0  0  0
   -8.9730   -7.9280   -1.2390 C   0  0  0  0  0  0
   -9.2930   -9.0540   -2.2200 N   0  3  0  0  0  0
   -7.7560   -2.6410    3.0690 O   0  0  0  0  0  0
   -7.6580    0.3430    3.5220 C   0  0  0  0  0  0
   -7.7150    1.6580    3.2720 N   0  0  0  0  0  0
   -7.5020    2.5950    4.3010 C   0  0  0  0  0  0
   -7.3650    4.9470    4.9890 C   0  0  0  0  0  0
   -6.8630    0.3760    7.2200 O   0  0  0  0  0  0
   -6.7870   -1.0270    7.5300 C   0  0  0  0  0  0
   -6.4530   -1.0750    9.0360 C   0  0  0  0  0  0
   -6.3350   -2.4930    9.5320 N   0  3  0  0  0  0
   -8.0600    0.1822    1.5282 H   0  0  0  0  0  0
   -8.1429   -4.4341    1.3764 H   0  0  0  0  0  0
   -7.7857    4.3315    2.9837 H   0  0  0  0  0  0
   -6.9242    5.2913    7.0765 H   0  0  0  0  0  0
   -7.3362   -1.1931    5.0180 H   0  0  0  0  0  0
   -8.1484    4.9602   -1.6616 H   0  0  0  0  0  0
   -9.0165   -3.8343   -2.7674 H   0  0  0  0  0  0
   -9.3170    0.4687   -5.3020 H   0  0  0  0  0  0
   -8.6630    7.2410   -5.2703 H   0  0  0  0  0  0
   -8.5167    0.6009   -1.5761 H   0  0  0  0  0  0
   -8.1812    7.1284   -2.8340 H   0  0  0  0  0  0
   -6.7957    2.8997    7.6622 H   0  0  0  0  0  0
  -10.6409    1.1731  -10.8805 H   0  0  0  0  0  0
   -9.6835    0.1775   -9.9797 H   0  0  0  0  0  0
  -11.2745    0.3663   -9.5895 H   0  0  0  0  0  0
  -10.9208    2.6983   -9.0318 H   0  0  0  0  0  0
   -9.2186    2.4963   -9.4493 H   0  0  0  0  0  0
   -8.9313    0.8444   -7.6306 H   0  0  0  0  0  0
  -10.7025    1.0531   -7.1967 H   0  0  0  0  0  0
   -9.1192    5.2008   -6.5537 H   0  0  0  0  0  0
   -8.2322   -6.3997   -2.5887 H   0  0  0  0  0  0
  -10.0457   -6.2730   -2.1425 H   0  0  0  0  0  0
   -9.6552   -7.9840   -0.3907 H   0  0  0  0  0  0
   -7.9902   -8.1004   -0.8003 H   0  0  0  0  0  0
   -9.2377   -9.9426   -1.7430 H   0  0  0  0  0  0
  -10.2254   -8.9268   -2.5868 H   0  0  0  0  0  0
   -8.6278   -9.0384   -2.9798 H   0  0  0  0  0  0
   -7.4177    6.0008    4.7584 H   0  0  0  0  0  0
   -5.9714   -1.4780    6.9647 H   0  0  0  0  0  0
   -7.7605   -1.4873    7.3612 H   0  0  0  0  0  0
   -7.2317   -0.5581    9.5969 H   0  0  0  0  0  0
   -5.5159   -0.5484    9.2167 H   0  0  0  0  0  0
   -6.1165   -2.4882   10.5181 H   0  0  0  0  0  0
   -7.2096   -2.9759    9.3838 H   0  0  0  0  0  0
   -5.5997   -2.9667    9.0270 H   0  0  0  0  0  0
  1  4  1  0  0  0
  1 12  2  0  0  0
  1 32  1  0  0  0
  2  5  1  0  0  0
  2 37  1  0  0  0
  2 45  1  0  0  0
  3 12  1  0  0  0
  3 14  1  0  0  0
  3 31  2  0  0  0
  4 18  2  0  0  0
  4 46  1  0  0  0
  5 18  1  0  0  0
  5 36  2  0  0  0
  6 10  1  0  0  0
  6 20  1  0  0  0
  6 28  2  0  0  0
  7 39  1  0  0  0
  7 40  2  0  0  0
  7 47  1  0  0  0
  8 23  2  0  0  0
  8 40  1  0  0  0
  8 48  1  0  0  0
  9 22  1  0  0  0
  9 37  2  0  0  0
  9 49  1  0  0  0
 10 21  2  0  0  0
 10 50  1  0  0  0
 11 22  2  0  0  0
 11 23  1  0  0  0
 11 39  1  0  0  0
 12 51  1  0  0  0
 13 15  1  0  0  0
 13 20  2  0  0  0
 13 27  1  0  0  0
 14 17  1  0  0  0
 14 30  2  0  0  0
 15 19  2  0  0  0
 15 52  1  0  0  0
 16 21  1  0  0  0
 16 29  2  0  0  0
 16 53  1  0  0  0
 17 19  1  0  0  0
 17 54  1  0  0  0
 18 31  1  0  0  0
 19 28  1  0  0  0
 20 29  1  0  0  0
 21 55  1  0  0  0
 22 41  1  0  0  0
 23 56  1  0  0  0
 24 25  1  0  0  0
 24 57  1  0  0  0
 24 58  1  0  0  0
 24 59  1  0  0  0
 25 26  1  0  0  0
 25 60  1  0  0  0
 25 61  1  0  0  0
 26 27  1  0  0  0
 26 62  1  0  0  0
 26 63  1  0  0  0
 29 64  1  0  0  0
 32 33  1  0  0  0
 33 34  1  0  0  0
 33 65  1  0  0  0
 33 66  1  0  0  0
 34 35  1  0  0  0
 34 67  1  0  0  0
 34 68  1  0  0  0
 35 69  1  0  0  0
 35 70  1  0  0  0
 35 71  1  0  0  0
 37 38  1  0  0  0
 38 39  2  0  0  0
 40 72  1  0  0  0
 41 42  1  0  0  0
 42 43  1  0  0  0
 42 73  1  0  0  0
 42 74  1  0  0  0
 43 44  1  0  0  0
 43 75  1  0  0  0
 43 76  1  0  0  0
 44 77  1  0  0  0
 44 78  1  0  0  0
 44 79  1  0  0  0
M  CHG  3  24   1  35   1  44   1
M  END
> <i_pdb_PDB_Model>
1

> <s_pdb_PDB_format_version>
3.0

> <b_ppw_prepared>
1

> <s_ppw_prepared_with_version>
2021-1

> <s_ppw_het_states>
eJztmEFug0AMRa8SsY4Q/h4g6VWi3CDqrquod+8Y/M1EVatEaqVUdRaZbxj+eMbmLbh20r3sTvUn+91w3u9O8FF9LD6OPk4+zj4efDz6KAMFHYWWQk+hqdBVaCv0FRoLnUFnRK50Bp1RnWURdAadQWfQGXRWOiudNY6BzsqcdfQllM5KZ6Wz0rnQudC50LnECS85m7IicANV2sHBtSUkXp9xk7a0eLkEjS6btk3BS2mnCi+naXFte4GX1yoortFqPlvXtA2Ka9sjvBWsENSFz9a5wKYtZ7BVwOSsXYA2UJ6ENOtZD8nYBODqS8DjWPbfBhrT7OEjg2nNQCKIO/M6TdiLGtOO61EIexKcZukXTrNORFSqCmtEYUdGolZX5U5NaFTOso5eszPnoiaUidqChadrotDNRPTW0M8Y6oVrh0N946UfD8dq0aks0TRYB3R6c6+MNUIPtfS7sUT0vt+9vl0u6//SuImPxEfiI/GR+Eh8JD4SH4mPxMdd+MAfwQcafMiX+AhifMJHQCLx0RTgTnyg12maAh/aw26v9FBjwkxCaF/m+ZCESEIkIZIQSYgkRBIiCZGE+OeECCr8EiF4PV6LZ/hIsUFhaO48QIgNCt8SAk9MiEc+UmyEuIWCtrxYvkokIZIQSYgkRBIiCZGESEL8FCHO7x8QZcE0

$$$$
