@<TRIPOS>MOLECULE
MOL
   79    83     1     0     0
SMALL
bcc


@<TRIPOS>ATOM
      1 C1          -8.5940    -4.3320    -0.7200 ca         1 MOL       0.131100
      2 N1          -7.9010    -0.4230     2.3210 ns         1 MOL      -0.524900
      3 C2          -8.7010    -2.0440    -1.5840 ca         1 MOL       0.391300
      4 C3          -8.3060    -3.7860     0.5280 ca         1 MOL      -0.212800
      5 C4          -7.9360    -1.8340     2.1560 c          1 MOL       0.588600
      6 C5          -8.6230     3.7830    -3.4450 ca         1 MOL       0.445600
      7 C6          -7.5720     4.0090     3.9920 ca         1 MOL      -0.167800
      8 C7          -7.0830     4.5400     6.3170 ca         1 MOL      -0.106500
      9 C8          -7.3740    -0.1260     4.8560 ca         1 MOL      -0.314800
     10 C9          -8.3600     4.9980    -2.7200 ca         1 MOL      -0.167800
     11 C10         -7.2170     2.1700     5.6460 ca         1 MOL      -0.166300
     12 C11         -8.7920    -3.4510    -1.7830 ca         1 MOL      -0.212800
     13 C12         -9.1690     2.5890    -5.5500 ca         1 MOL       0.169100
     14 C13         -8.8850    -1.0850    -2.7830 c          1 MOL       0.588600
     15 C14         -9.1280     1.4150    -4.8170 ca         1 MOL      -0.314800
     16 C15         -8.6530     6.2850    -4.7680 ca         1 MOL      -0.106500
     17 N2          -8.7320     0.2910    -2.5130 ns         1 MOL      -0.524900
     18 C16         -8.2160    -2.3840     0.7360 ca         1 MOL       0.391300
     19 C17         -8.8370     1.4100    -3.4050 ca         1 MOL       0.560700
     20 C18         -8.9060     3.8360    -4.8570 ca         1 MOL      -0.166300
     21 C19         -8.3780     6.2170    -3.3790 ca         1 MOL      -0.091500
     22 C20         -7.1530     0.7440     5.9130 ca         1 MOL       0.169100
     23 C21         -7.0100     3.1960     6.6460 ca         1 MOL      -0.107000
     24 N3         -10.4530     0.8310    -9.9490 nz         1 MOL      -0.833600
     25 C22        -10.0960     1.9860    -9.0520 c3         1 MOL       0.093300
     26 C23         -9.8020     1.5000    -7.6180 c3         1 MOL       0.104400
     27 O1          -9.4840     2.6980    -6.8960 os         1 MOL      -0.371900
     28 N4          -8.5960     2.5550    -2.7520 nb         1 MOL      -0.701000
     29 C24         -8.9110     5.1350    -5.4960 ca         1 MOL      -0.107000
     30 O2          -9.1400    -1.5560    -3.8890 o          1 MOL      -0.590600
     31 N5          -8.4160    -1.5370    -0.3300 nb         1 MOL      -0.641000
     32 O3          -8.6850    -5.7140    -0.6970 os         1 MOL      -0.363900
     33 C25         -9.0220    -6.4990    -1.8440 c3         1 MOL       0.100400
     34 C26         -8.9730    -7.9280    -1.2390 c3         1 MOL       0.095800
     35 N6          -9.2930    -9.0540    -2.2200 nz         1 MOL      -0.835600
     36 O4          -7.7560    -2.6410     3.0690 o          1 MOL      -0.590600
     37 C27         -7.6580     0.3430     3.5220 ca         1 MOL       0.560700
     38 N7          -7.7150     1.6580     3.2720 nb         1 MOL      -0.701000
     39 C28         -7.5020     2.5950     4.3010 ca         1 MOL       0.445600
     40 C29         -7.3650     4.9470     4.9890 ca         1 MOL      -0.091500
     41 O5          -6.8630     0.3760     7.2200 os         1 MOL      -0.371900
     42 C30         -6.7870    -1.0270     7.5300 c3         1 MOL       0.104400
     43 C31         -6.4530    -1.0750     9.0360 c3         1 MOL       0.093300
     44 N8          -6.3350    -2.4930     9.5320 nz         1 MOL      -0.833600
     45 H1          -8.0600     0.1820     1.5280 hn         1 MOL       0.357000
     46 H2          -8.1430    -4.4340     1.3760 ha         1 MOL       0.183000
     47 H3          -7.7860     4.3320     2.9840 ha         1 MOL       0.166000
     48 H4          -6.9240     5.2910     7.0770 ha         1 MOL       0.155000
     49 H5          -7.3360    -1.1930     5.0180 ha         1 MOL       0.176500
     50 H6          -8.1480     4.9600    -1.6620 ha         1 MOL       0.166000
     51 H7          -9.0170    -3.8340    -2.7670 ha         1 MOL       0.183000
     52 H8          -9.3170     0.4690    -5.3020 ha         1 MOL       0.176500
     53 H9          -8.6630     7.2410    -5.2700 ha         1 MOL       0.155000
     54 H10         -8.5170     0.6010    -1.5760 hn         1 MOL       0.357000
     55 H11         -8.1810     7.1280    -2.8340 ha         1 MOL       0.161000
     56 H12         -6.7960     2.9000     7.6620 ha         1 MOL       0.120500
     57 H13        -10.6410     1.1730   -10.8800 hn         1 MOL       0.469467
     58 H14         -9.6840     0.1770    -9.9800 hn         1 MOL       0.469467
     59 H15        -11.2740     0.3660    -9.5890 hn         1 MOL       0.469467
     60 H16        -10.9210     2.6980    -9.0320 hx         1 MOL       0.124950
     61 H17         -9.2190     2.4960    -9.4490 hx         1 MOL       0.124950
     62 H18         -8.9310     0.8440    -7.6310 h1         1 MOL       0.091700
     63 H19        -10.7030     1.0530    -7.1970 h1         1 MOL       0.091700
     64 H20         -9.1190     5.2010    -6.5540 ha         1 MOL       0.120500
     65 H21         -8.2320    -6.4000    -2.5890 h1         1 MOL       0.093200
     66 H22        -10.0460    -6.2730    -2.1430 h1         1 MOL       0.093200
     67 H23         -9.6550    -7.9840    -0.3910 hx         1 MOL       0.130200
     68 H24         -7.9900    -8.1000    -0.8000 hx         1 MOL       0.130200
     69 H25         -9.2380    -9.9430    -1.7430 hn         1 MOL       0.471133
     70 H26        -10.2250    -8.9270    -2.5870 hn         1 MOL       0.471133
     71 H27         -8.6280    -9.0380    -2.9800 hn         1 MOL       0.471133
     72 H28         -7.4180     6.0010     4.7580 ha         1 MOL       0.161000
     73 H29         -5.9710    -1.4780     6.9650 h1         1 MOL       0.091700
     74 H30         -7.7610    -1.4870     7.3610 h1         1 MOL       0.091700
     75 H31         -7.2320    -0.5580     9.5970 hx         1 MOL       0.124950
     76 H32         -5.5160    -0.5480     9.2170 hx         1 MOL       0.124950
     77 H33         -6.1170    -2.4880    10.5180 hn         1 MOL       0.469467
     78 H34         -7.2100    -2.9760     9.3840 hn         1 MOL       0.469467
     79 H35         -5.6000    -2.9670     9.0270 hn         1 MOL       0.469467
@<TRIPOS>BOND
     1     1     4 ar  
     2     1    12 ar  
     3     1    32 1   
     4     2     5 1   
     5     2    37 1   
     6     2    45 1   
     7     3    12 ar  
     8     3    14 1   
     9     3    31 ar  
    10     4    18 ar  
    11     4    46 1   
    12     5    18 1   
    13     5    36 2   
    14     6    10 ar  
    15     6    20 ar  
    16     6    28 ar  
    17     7    39 ar  
    18     7    40 ar  
    19     7    47 1   
    20     8    23 ar  
    21     8    40 ar  
    22     8    48 1   
    23     9    22 ar  
    24     9    37 ar  
    25     9    49 1   
    26    10    21 ar  
    27    10    50 1   
    28    11    22 ar  
    29    11    23 ar  
    30    11    39 ar  
    31    12    51 1   
    32    13    15 ar  
    33    13    20 ar  
    34    13    27 1   
    35    14    17 1   
    36    14    30 2   
    37    15    19 ar  
    38    15    52 1   
    39    16    21 ar  
    40    16    29 ar  
    41    16    53 1   
    42    17    19 1   
    43    17    54 1   
    44    18    31 ar  
    45    19    28 ar  
    46    20    29 ar  
    47    21    55 1   
    48    22    41 1   
    49    23    56 1   
    50    24    25 1   
    51    24    57 1   
    52    24    58 1   
    53    24    59 1   
    54    25    26 1   
    55    25    60 1   
    56    25    61 1   
    57    26    27 1   
    58    26    62 1   
    59    26    63 1   
    60    29    64 1   
    61    32    33 1   
    62    33    34 1   
    63    33    65 1   
    64    33    66 1   
    65    34    35 1   
    66    34    67 1   
    67    34    68 1   
    68    35    69 1   
    69    35    70 1   
    70    35    71 1   
    71    37    38 ar  
    72    38    39 ar  
    73    40    72 1   
    74    41    42 1   
    75    42    43 1   
    76    42    73 1   
    77    42    74 1   
    78    43    44 1   
    79    43    75 1   
    80    43    76 1   
    81    44    77 1   
    82    44    78 1   
    83    44    79 1   
@<TRIPOS>SUBSTRUCTURE
     1 MOL         1 TEMP              0 ****  ****    0 ROOT
