
                    3D
 Schrodinger Suite 2021-1.
 50 55  0  0  1  0            999 V2000
   14.0620   26.7330    0.9740 O   0  0  0  0  0  0
   13.2480   26.2960    1.9710 C   0  0  0  0  0  0
   12.1810   27.0820    2.4350 C   0  0  0  0  0  0
   11.3770   26.6130    3.4820 C   0  0  0  0  0  0
   13.4740   25.0490    2.5700 C   0  0  0  0  0  0
   12.6560   24.5800    3.6050 C   0  0  0  0  0  0
   11.6220   25.3820    4.1250 C   0  0  0  0  0  0
   10.7560   24.9150    5.1810 C   0  0  0  0  0  0
   11.0920   24.0020    6.1370 N   0  0  0  0  0  0
    9.4910   25.3450    5.3460 N   0  0  0  0  0  0
    8.9940   24.6460    6.4260 C   0  0  0  0  0  0
    9.9770   23.8700    6.9460 C   0  0  0  0  0  0
    9.7660   23.0700    8.0770 C   0  0  0  0  0  0
    7.7590   24.7740    7.0750 C   0  0  0  0  0  0
    7.4750   23.9410    8.1680 C   0  0  0  0  0  0
    8.4780   23.0710    8.6640 C   0  0  0  0  0  0
    8.1660   22.1330    9.8020 C   0  0  0  0  0  0
    6.8170   21.8910   10.1680 C   0  0  0  0  0  0
    6.5160   21.0030   11.2080 C   0  0  0  0  0  0
    9.2100   21.4850   10.5080 C   0  0  0  0  0  0
    8.8690   20.6330   11.5650 C   0  0  0  0  0  0
    7.5750   20.4020   11.9070 C   0  0  0  0  0  0
    7.5380   19.5290   12.9700 N   0  0  0  0  0  0
    9.6710   19.9310   12.4480 N   0  0  0  0  0  0
    8.8180   19.2740   13.2820 C   0  0  0  0  0  0
    9.2140   18.3950   14.3550 C   0  0  0  0  0  0
   10.5300   18.4050   14.8560 C   0  0  0  0  0  0
   10.8780   17.6010   15.9490 C   0  0  0  0  0  0
    8.2480   17.6520   15.0580 C   0  0  0  0  0  0
    8.5910   16.8600   16.1540 C   0  0  0  0  0  0
    9.9160   16.8270   16.6150 C   0  0  0  0  0  0
   10.2400   16.0510   17.6840 O   0  0  0  0  0  0
   14.7298   26.0681    0.7909 H   0  0  0  0  0  0
   11.9831   28.0436    1.9850 H   0  0  0  0  0  0
   10.5366   27.1999    3.8221 H   0  0  0  0  0  0
   14.2924   24.4292    2.2346 H   0  0  0  0  0  0
   12.8146   23.5929    4.0136 H   0  0  0  0  0  0
    9.1111   26.0463    4.7263 H   0  0  0  0  0  0
   10.5744   22.4756    8.4765 H   0  0  0  0  0  0
    7.0422   25.5056    6.7324 H   0  0  0  0  0  0
    6.4971   23.9654    8.6258 H   0  0  0  0  0  0
    6.0170   22.3926    9.6438 H   0  0  0  0  0  0
    5.4865   20.7929   11.4577 H   0  0  0  0  0  0
   10.2387   21.6541   10.2260 H   0  0  0  0  0  0
   10.6765   19.9878   12.3715 H   0  0  0  0  0  0
   11.2777   19.0350   14.3972 H   0  0  0  0  0  0
   11.9015   17.5698   16.2922 H   0  0  0  0  0  0
    7.2127   17.6865   14.7525 H   0  0  0  0  0  0
    7.8356   16.2694   16.6509 H   0  0  0  0  0  0
    9.4547   15.5998   18.0023 H   0  0  0  0  0  0
  1  2  1  0  0  0
  1 33  1  0  0  0
  2  3  2  0  0  0
  2  5  1  0  0  0
  3  4  1  0  0  0
  3 34  1  0  0  0
  4  7  2  0  0  0
  4 35  1  0  0  0
  5  6  2  0  0  0
  5 36  1  0  0  0
  6  7  1  0  0  0
  6 37  1  0  0  0
  7  8  1  0  0  0
  8  9  2  0  0  0
  8 10  1  0  0  0
  9 12  1  0  0  0
 10 11  1  0  0  0
 10 38  1  0  0  0
 11 12  2  0  0  0
 11 14  1  0  0  0
 12 13  1  0  0  0
 13 16  2  0  0  0
 13 39  1  0  0  0
 14 15  2  0  0  0
 14 40  1  0  0  0
 15 16  1  0  0  0
 15 41  1  0  0  0
 16 17  1  0  0  0
 17 18  1  0  0  0
 17 20  2  0  0  0
 18 19  2  0  0  0
 18 42  1  0  0  0
 19 22  1  0  0  0
 19 43  1  0  0  0
 20 21  1  0  0  0
 20 44  1  0  0  0
 21 22  2  0  0  0
 21 24  1  0  0  0
 22 23  1  0  0  0
 23 25  2  0  0  0
 24 25  1  0  0  0
 24 45  1  0  0  0
 25 26  1  0  0  0
 26 27  2  0  0  0
 26 29  1  0  0  0
 27 28  1  0  0  0
 27 46  1  0  0  0
 28 31  2  0  0  0
 28 47  1  0  0  0
 29 30  2  0  0  0
 29 48  1  0  0  0
 30 31  1  0  0  0
 30 49  1  0  0  0
 31 32  1  0  0  0
 32 50  1  0  0  0
M  END
> <s_pdb_PDB_format_version>
3.0

> <b_ppw_prepared>
1

> <s_ppw_prepared_with_version>
2021-1

> <s_ppw_het_states>
eJztl0uKwzAMhq8Ssi7BkvzKXKX0BmV2sypz95Ec/WlgYLrquFB3UT1ifgu5X+XcZpo/prN+6DSFy2k6s1txG90mt9ltcVvdrm4pwIEiQZKgSRAlqBJkCboEYYIyQ5n3WqHMUGYoM5QZygxlhjJDWaAsUJambJ41RgPy3uhG7G7yrKaiu2qLL9Cn2d3csuRdq+6qXX2BpYKnNUfYryUJAW1PeA+wa1svCMzBzm1JQpC2J4SGE6pqTj0E1mrGKRDKbM7eC1uC2sxh1NYC1NayqM0cRjm2hNHDlkVt5jD62IIVTyyLQs2xA2OcpaBqcwS1mSOtao3CUmPSpbd51d+9RimrysyyRTlrHXNMGtEShOn7NH1+Xa/bd/s5DFD6gAKXcMjvAAodQeE+oFA4ssHxyI3UQcog5RVI6TdSaOFovXNSaCEpgpmyR05KlET3CWPR4OZVuHnLq1i/CUOLcCFcxZSiUAoGzBY9GY39KAcaj9AYI+WfR0pKttcNQyTHXDBE0pJTPgyRIvXZpHQZIvs/0yBlkPKYFL98HUnZ2AApGzeDlFch5S2vW11JWVO6X7dyjXxHQ1/n65PRGNetMUT+QqPnmwjQ8JcPZ8OvW7/ZuHz/AIA/OQ0=

$$$$
