@<TRIPOS>MOLECULE
MOL
   50    55     1     0     0
SMALL
bcc


@<TRIPOS>ATOM
      1 O1          14.0620    26.7330     0.9740 oh         1 MOL      -0.493100
      2 C1          13.2480    26.2960     1.9710 ca         1 MOL       0.140100
      3 C2          12.1810    27.0820     2.4350 ca         1 MOL      -0.191000
      4 C3          11.3770    26.6130     3.4820 ca         1 MOL      -0.063500
      5 C4          13.4740    25.0490     2.5700 ca         1 MOL      -0.191000
      6 C5          12.6560    24.5800     3.6050 ca         1 MOL      -0.063500
      7 C6          11.6220    25.3820     4.1250 ca         1 MOL      -0.153900
      8 C7          10.7560    24.9150     5.1810 cc         1 MOL       0.474400
      9 N1          11.0920    24.0020     6.1370 nd         1 MOL      -0.562100
     10 N2           9.4910    25.3450     5.3460 na         1 MOL      -0.280300
     11 C8           8.9940    24.6460     6.4260 ca         1 MOL      -0.068200
     12 C9           9.9770    23.8700     6.9460 ca         1 MOL       0.065400
     13 C10          9.7660    23.0700     8.0770 ca         1 MOL      -0.059000
     14 C11          7.7590    24.7740     7.0750 ca         1 MOL      -0.137000
     15 C12          7.4750    23.9410     8.1680 ca         1 MOL      -0.100000
     16 C13          8.4780    23.0710     8.6640 cp         1 MOL      -0.061000
     17 C14          8.1660    22.1330     9.8020 cp         1 MOL      -0.016000
     18 C15          6.8170    21.8910    10.1680 ca         1 MOL      -0.144000
     19 C16          6.5160    21.0030    11.2080 ca         1 MOL      -0.071000
     20 C17          9.2100    21.4850    10.5080 ca         1 MOL      -0.127000
     21 C18          8.8690    20.6330    11.5650 ca         1 MOL      -0.071200
     22 C19          7.5750    20.4020    11.9070 ca         1 MOL       0.069400
     23 N3           7.5380    19.5290    12.9700 nc         1 MOL      -0.563100
     24 N4           9.6710    19.9310    12.4480 na         1 MOL      -0.280300
     25 C20          8.8180    19.2740    13.2820 cd         1 MOL       0.474400
     26 C21          9.2140    18.3950    14.3550 ca         1 MOL      -0.152900
     27 C22         10.5300    18.4050    14.8560 ca         1 MOL      -0.063500
     28 C23         10.8780    17.6010    15.9490 ca         1 MOL      -0.191000
     29 C24          8.2480    17.6520    15.0580 ca         1 MOL      -0.063500
     30 C25          8.5910    16.8600    16.1540 ca         1 MOL      -0.191000
     31 C26          9.9160    16.8270    16.6150 ca         1 MOL       0.140100
     32 O2          10.2400    16.0510    17.6840 oh         1 MOL      -0.493100
     33 H1          14.7300    26.0680     0.7910 ho         1 MOL       0.423000
     34 H2          11.9830    28.0440     1.9850 ha         1 MOL       0.147500
     35 H3          10.5370    27.2000     3.8220 ha         1 MOL       0.147000
     36 H4          14.2920    24.4290     2.2350 ha         1 MOL       0.147500
     37 H5          12.8150    23.5930     4.0140 ha         1 MOL       0.147000
     38 H6           9.1110    26.0460     4.7260 hn         1 MOL       0.306700
     39 H7          10.5740    22.4760     8.4760 ha         1 MOL       0.151000
     40 H8           7.0420    25.5060     6.7320 ha         1 MOL       0.137000
     41 H9           6.4970    23.9650     8.6260 ha         1 MOL       0.139000
     42 H10          6.0170    22.3930     9.6440 ha         1 MOL       0.136000
     43 H11          5.4870    20.7930    11.4580 ha         1 MOL       0.148000
     44 H12         10.2390    21.6540    10.2260 ha         1 MOL       0.141000
     45 H13         10.6770    19.9880    12.3710 hn         1 MOL       0.306700
     46 H14         11.2780    19.0350    14.3970 ha         1 MOL       0.147000
     47 H15         11.9020    17.5700    16.2920 ha         1 MOL       0.147500
     48 H16          7.2130    17.6860    14.7520 ha         1 MOL       0.147000
     49 H17          7.8360    16.2690    16.6510 ha         1 MOL       0.147500
     50 H18          9.4550    15.6000    18.0020 ho         1 MOL       0.423000
@<TRIPOS>BOND
     1     1     2 1   
     2     1    33 1   
     3     2     3 ar  
     4     2     5 ar  
     5     3     4 ar  
     6     3    34 1   
     7     4     7 ar  
     8     4    35 1   
     9     5     6 ar  
    10     5    36 1   
    11     6     7 ar  
    12     6    37 1   
    13     7     8 1   
    14     8     9 2   
    15     8    10 1   
    16     9    12 1   
    17    10    11 1   
    18    10    38 1   
    19    11    12 ar  
    20    11    14 ar  
    21    12    13 ar  
    22    13    16 ar  
    23    13    39 1   
    24    14    15 ar  
    25    14    40 1   
    26    15    16 ar  
    27    15    41 1   
    28    16    17 1   
    29    17    18 ar  
    30    17    20 ar  
    31    18    19 ar  
    32    18    42 1   
    33    19    22 ar  
    34    19    43 1   
    35    20    21 ar  
    36    20    44 1   
    37    21    22 ar  
    38    21    24 1   
    39    22    23 1   
    40    23    25 2   
    41    24    25 1   
    42    24    45 1   
    43    25    26 1   
    44    26    27 ar  
    45    26    29 ar  
    46    27    28 ar  
    47    27    46 1   
    48    28    31 ar  
    49    28    47 1   
    50    29    30 ar  
    51    29    48 1   
    52    30    31 ar  
    53    30    49 1   
    54    31    32 1   
    55    32    50 1   
@<TRIPOS>SUBSTRUCTURE
     1 MOL         1 TEMP              0 ****  ****    0 ROOT
