@<TRIPOS>MOLECULE
MOL
   29    28     1     0     0
SMALL
bcc


@<TRIPOS>ATOM
      1 N1           0.7540     6.4340    -6.2200 nz         1 MOL      -0.837600
      2 C1           0.6640     6.5250    -4.7790 c3         1 MOL       0.038500
      3 C2          -0.8440     6.3920    -4.4220 c3         1 MOL      -0.103400
      4 C3          -1.2270     6.4560    -2.9750 c3         1 MOL      -0.096400
      5 C4          -2.5410     6.5860    -2.3680 c3         1 MOL       0.031300
      6 N2          -2.3160     6.4400    -0.9420 nu         1 MOL      -0.422100
      7 C5          -3.2530     6.2520    -0.0350 cz         1 MOL       0.534300
      8 N3          -2.8670     6.1440     1.2190 nv         1 MOL      -0.492200
      9 N4          -4.5330     6.1420    -0.3430 nv         1 MOL      -0.492200
     10 C6           1.5950     5.5020    -4.1290 c          1 MOL       0.631100
     11 O1           1.7420     4.3610    -4.5500 o          1 MOL      -0.567100
     12 N5           2.2440     5.8600    -3.0420 nt         1 MOL      -0.623000
     13 H1           1.7200     6.5150    -6.5030 hn         1 MOL       0.478467
     14 H2           0.3880     5.5430    -6.5250 hn         1 MOL       0.478467
     15 H3           0.2170     7.1800    -6.6390 hn         1 MOL       0.478467
     16 H4           0.9950     7.5200    -4.4820 hx         1 MOL       0.120700
     17 H5          -1.2340     5.4710    -4.8540 hc         1 MOL       0.088200
     18 H6          -1.4100     7.1420    -4.9750 hc         1 MOL       0.088200
     19 H7          -0.5680     7.1760    -2.4910 hc         1 MOL       0.077200
     20 H8          -0.7040     5.6500    -2.4600 hc         1 MOL       0.077200
     21 H9          -3.1820     5.7770    -2.7170 h1         1 MOL       0.073200
     22 H10         -2.9360     7.5810    -2.5720 h1         1 MOL       0.073200
     23 H11         -1.3470     6.4930    -0.6630 hn         1 MOL       0.324700
     24 H12         -3.5510     5.9990     1.9470 hn         1 MOL       0.334700
     25 H13         -1.8860     6.2060     1.4530 hn         1 MOL       0.334700
     26 H14         -5.2170     5.9980     0.3860 hn         1 MOL       0.334700
     27 H15         -4.8270     6.2020    -1.3070 hn         1 MOL       0.334700
     28 H16          2.8670     5.2080    -2.5880 hn         1 MOL       0.350500
     29 H17          2.1190     6.7870    -2.6620 hn         1 MOL       0.350500
@<TRIPOS>BOND
     1     1     2 1   
     2     1    13 1   
     3     1    14 1   
     4     1    15 1   
     5     2     3 1   
     6     2    10 1   
     7     2    16 1   
     8     3     4 1   
     9     3    17 1   
    10     3    18 1   
    11     4     5 1   
    12     4    19 1   
    13     4    20 1   
    14     5     6 1   
    15     5    21 1   
    16     5    22 1   
    17     6     7 2   
    18     6    23 1   
    19     7     8 1   
    20     7     9 1   
    21     8    24 1   
    22     8    25 1   
    23     9    26 1   
    24     9    27 1   
    25    10    11 2   
    26    10    12 1   
    27    12    28 1   
    28    12    29 1   
@<TRIPOS>SUBSTRUCTURE
     1 MOL         1 TEMP              0 ****  ****    0 ROOT
