
                    3D
 Schrodinger Suite 2021-1.
 29 28  0  0  1  0            999 V2000
    0.7540    6.4340   -6.2200 N   0  3  0  0  0  0
    0.6640    6.5250   -4.7790 C   0  0  1  0  0  0
   -0.8440    6.3920   -4.4220 C   0  0  0  0  0  0
   -1.2270    6.4560   -2.9750 C   0  0  0  0  0  0
   -2.5410    6.5860   -2.3680 C   0  0  0  0  0  0
   -2.3160    6.4400   -0.9420 N   0  0  0  0  0  0
   -3.2530    6.2520   -0.0350 C   0  0  0  0  0  0
   -2.8670    6.1440    1.2190 N   0  0  0  0  0  0
   -4.5330    6.1420   -0.3430 N   0  3  0  0  0  0
    1.5950    5.5020   -4.1290 C   0  0  0  0  0  0
    1.7420    4.3610   -4.5500 O   0  0  0  0  0  0
    2.2440    5.8600   -3.0420 N   0  0  0  0  0  0
    1.7200    6.5154   -6.5033 H   0  0  0  0  0  0
    0.3881    5.5434   -6.5251 H   0  0  0  0  0  0
    0.2168    7.1796   -6.6391 H   0  0  0  0  0  0
    0.9952    7.5201   -4.4819 H   0  0  0  0  0  0
   -1.2337    5.4705   -4.8545 H   0  0  0  0  0  0
   -1.4097    7.1419   -4.9750 H   0  0  0  0  0  0
   -0.5676    7.1764   -2.4910 H   0  0  0  0  0  0
   -0.7040    5.6504   -2.4596 H   0  0  0  0  0  0
   -3.1823    5.7769   -2.7175 H   0  0  0  0  0  0
   -2.9364    7.5812   -2.5716 H   0  0  0  0  0  0
   -1.3467    6.4930   -0.6632 H   0  0  0  0  0  0
   -3.5515    5.9992    1.9474 H   0  0  0  0  0  0
   -1.8864    6.2060    1.4527 H   0  0  0  0  0  0
   -5.2173    5.9984    0.3859 H   0  0  0  0  0  0
   -4.8273    6.2015   -1.3073 H   0  0  0  0  0  0
    2.8671    5.2076   -2.5879 H   0  0  0  0  0  0
    2.1191    6.7873   -2.6616 H   0  0  0  0  0  0
  1  2  1  0  0  0
  1 13  1  0  0  0
  1 14  1  0  0  0
  1 15  1  0  0  0
  2  3  1  0  0  0
  2 10  1  0  0  0
  2 16  1  0  0  0
  3  4  1  0  0  0
  3 17  1  0  0  0
  3 18  1  0  0  0
  4  5  1  0  0  0
  4 19  1  0  0  0
  4 20  1  0  0  0
  5  6  1  0  0  0
  5 21  1  0  0  0
  5 22  1  0  0  0
  6  7  1  0  0  0
  6 23  1  0  0  0
  7  8  1  0  0  0
  7  9  2  0  0  0
  8 24  1  0  0  0
  8 25  1  0  0  0
  9 26  1  0  0  0
  9 27  1  0  0  0
 10 11  2  0  0  0
 10 12  1  0  0  0
 12 28  1  0  0  0
 12 29  1  0  0  0
M  CHG  2   1   1   9   1
M  END
> <s_pdb_PDB_format_version>
3.0

> <b_ppw_prepared>
1

> <s_ppw_prepared_with_version>
2021-1

> <s_ppw_het_states>
eJztkEEOgzAMBL8S5Ryh2JCE9CuIH6DeekL8vXZYyAdQD5U5MLsg4zC7J/9yi1wUHK3BLRxcVI7gBCYwgwWcwYp5inhAdIX2SU26hPuesUedIqydEIUJUZgRhQVROPcoB+DrALq7l7ZSWhxqYnmze87y163KoOdytyO492fbzns7sokxMSbmMTHxz8XQUInrLUZrvMWczcSYGBNjYn4nZj2+HOod4w==

$$$$
