
                    3D
 Schrodinger Suite 2021-1.
 57 62  0  0  1  0            999 V2000
    7.1940   20.2920   13.0420 O   0  0  0  0  0  0
    7.4100   21.1830   12.0110 C   0  0  0  0  0  0
    7.7800   22.5880    9.5960 C   0  0  0  0  0  0
    6.3450   21.9030   11.4240 C   0  0  0  0  0  0
    6.5270   22.5860   10.2040 C   0  0  0  0  0  0
    8.6760   21.2540   11.4240 C   0  0  0  0  0  0
    8.8570   21.9460   10.2150 C   0  0  0  0  0  0
    8.0140   23.4010    8.5130 C   0  0  0  0  0  0
    9.2110   23.4430    7.8730 N   0  0  0  0  0  0
    9.1370   24.1440    6.6650 C   0  0  0  0  0  0
    7.8120   24.6580    6.8520 C   0  0  0  0  0  0
    7.0660   24.1400    7.9100 N   0  0  0  0  0  0
    7.5050   25.7430    5.9860 C   0  0  0  0  0  0
    8.3810   26.2100    4.9880 C   0  0  0  0  0  0
    9.6280   25.6040    4.8010 C   0  0  0  0  0  0
   10.0350   24.5760    5.6760 C   0  0  0  0  0  0
   10.3270   25.8590    3.6230 C   0  0  0  0  0  0
   11.4430   25.1860    3.2370 N   0  0  0  0  0  0
   12.1070   25.7940    2.1740 C   0  0  0  0  0  0
   11.2310   26.8960    2.0140 C   0  0  0  0  0  0
   10.1790   26.9900    2.9110 N   0  0  0  0  0  0
   11.5340   27.7290    0.9130 C   0  0  0  0  0  0
   12.5280   27.4360   -0.0290 C   0  0  0  0  0  0
   13.2620   26.2700    0.1140 C   0  0  0  0  0  0
   13.1060   25.4750    1.2500 C   0  0  0  0  0  0
   14.0220   25.8600   -0.9000 N   0  0  0  0  0  0
   13.4760   25.8440   -2.2410 C   0  0  0  0  0  0
   14.1690   24.9220   -3.1170 C   0  0  0  0  0  0
   15.6080   25.2720   -3.2260 N   0  3  0  0  0  0
   16.1750   25.2900   -1.8540 C   0  0  0  0  0  0
   15.4270   26.1770   -0.9850 C   0  0  0  0  0  0
   16.3930   24.4170   -4.1500 C   0  0  0  0  0  0
    8.0296   19.9019   13.3087 H   0  0  0  0  0  0
    5.3811   21.9335   11.9102 H   0  0  0  0  0  0
    5.7013   23.1057    9.7409 H   0  0  0  0  0  0
    9.5194   20.7759   11.8999 H   0  0  0  0  0  0
    9.8376   21.9797    9.7637 H   0  0  0  0  0  0
   10.0188   22.9965    8.2830 H   0  0  0  0  0  0
    6.5579   26.2542    6.0757 H   0  0  0  0  0  0
    8.0919   27.0407    4.3613 H   0  0  0  0  0  0
   11.0121   24.1225    5.5985 H   0  0  0  0  0  0
   11.7105   24.3364    3.7133 H   0  0  0  0  0  0
   10.9861   28.6477    0.7641 H   0  0  0  0  0  0
   12.7113   28.1142   -0.8493 H   0  0  0  0  0  0
   13.7460   24.6218    1.4197 H   0  0  0  0  0  0
   13.5218   26.8481   -2.6627 H   0  0  0  0  0  0
   12.4196   25.5788   -2.1988 H   0  0  0  0  0  0
   13.7129   24.9494   -4.1066 H   0  0  0  0  0  0
   14.0705   23.9085   -2.7282 H   0  0  0  0  0  0
   15.6580   26.2164   -3.5805 H   0  0  0  0  0  0
   17.2148   25.6145   -1.8954 H   0  0  0  0  0  0
   16.1601   24.2810   -1.4420 H   0  0  0  0  0  0
   15.8632   26.1572    0.0137 H   0  0  0  0  0  0
   15.5456   27.2046   -1.3286 H   0  0  0  0  0  0
   17.4306   24.7507   -4.1614 H   0  0  0  0  0  0
   16.3486   23.3812   -3.8134 H   0  0  0  0  0  0
   15.9773   24.4901   -5.1550 H   0  0  0  0  0  0
  1  2  1  0  0  0
  1 33  1  0  0  0
  2  4  2  0  0  0
  2  6  1  0  0  0
  3  5  2  0  0  0
  3  7  1  0  0  0
  3  8  1  0  0  0
  4  5  1  0  0  0
  4 34  1  0  0  0
  5 35  1  0  0  0
  6  7  2  0  0  0
  6 36  1  0  0  0
  7 37  1  0  0  0
  8  9  1  0  0  0
  8 12  2  0  0  0
  9 10  1  0  0  0
  9 38  1  0  0  0
 10 11  2  0  0  0
 10 16  1  0  0  0
 11 12  1  0  0  0
 11 13  1  0  0  0
 13 14  2  0  0  0
 13 39  1  0  0  0
 14 15  1  0  0  0
 14 40  1  0  0  0
 15 16  2  0  0  0
 15 17  1  0  0  0
 16 41  1  0  0  0
 17 18  1  0  0  0
 17 21  2  0  0  0
 18 19  1  0  0  0
 18 42  1  0  0  0
 19 20  2  0  0  0
 19 25  1  0  0  0
 20 21  1  0  0  0
 20 22  1  0  0  0
 22 23  2  0  0  0
 22 43  1  0  0  0
 23 24  1  0  0  0
 23 44  1  0  0  0
 24 25  2  0  0  0
 24 26  1  0  0  0
 25 45  1  0  0  0
 26 27  1  0  0  0
 26 31  1  0  0  0
 27 28  1  0  0  0
 27 46  1  0  0  0
 27 47  1  0  0  0
 28 29  1  0  0  0
 28 48  1  0  0  0
 28 49  1  0  0  0
 29 30  1  0  0  0
 29 32  1  0  0  0
 29 50  1  0  0  0
 30 31  1  0  0  0
 30 51  1  0  0  0
 30 52  1  0  0  0
 31 53  1  0  0  0
 31 54  1  0  0  0
 32 55  1  0  0  0
 32 56  1  0  0  0
 32 57  1  0  0  0
M  CHG  1  29   1
M  END
> <s_pdb_PDB_format_version>
3.0

> <b_ppw_prepared>
1

> <s_ppw_prepared_with_version>
2021-1

> <s_ppw_het_states>
eJztmUlu4zAQRa9iaG0QrIFTXyXIDYLe9crI3ZtF8VNELxuOYdnMIjWQ+qIoPVRJvm20/bp81D+6Xvzn9fLB3Uq32m3oNnabus3dlm7Jw4EiQZKgSRAlqBJkCboEYYIyQ5nHWqHMUGYoM5QZygxlhjJXZWrXCmWBsjRl82xjuM+rtupzdyOOvl5Cz1Y3HdncXW0TqO9e6nPrKM5vE7mnLed7vjnUB1qAc1qWeA4EgTlYpTmEczcnYsQCrLU5eQp4nNSyWKY5dhN4BJBuWZqDsWV2XYJNM0cxorsAjwAXZw6nKZAhbWvDQs0Zt9Ac8XOAFVh2F6iRd0Wr4G0jrs89OcpVcWODwIakHrhJbkPiY5XYdJ/IJfH39fL7z9fX/r89G2ejZtySk1MDdyCwqPlhanISw6bsMGS7jh0NdYliPj8ar1JQFhqPRqOEOKHhg04VpUg4aojoK4DyKjVkdV4PBYWcpxSm1qt2VOHotpR8nkqKpvODsirKD4DCMyj0mqAEVjoqSpL2VkI7JxR9WWg8CxpPVUPeAo2gOtWQVFq3BTaK7SUqSiENDydl3MRFyhOT8g7dVkl23G1/E6lhiePbVnScgqDbYies5wdlvZYsUP4DFHv62TjpZCRfBhnREWd6OBp377buhYZfaLwZGqIyui12kZRRQ9glTuPbVnCZKZ6flHt1W4uUdyMl5DyREkop+ArMjqPM3By/nbCVm38KzOf3X2pkiX4=

$$$$
