@<TRIPOS>MOLECULE
MOL
   57    62     1     0     0
SMALL
bcc


@<TRIPOS>ATOM
      1 O1           7.1940    20.2920    13.0420 oh         1 MOL      -0.486100
      2 C1           7.4100    21.1830    12.0110 ca         1 MOL       0.152100
      3 C2           7.7800    22.5880     9.5960 ca         1 MOL      -0.171900
      4 C3           6.3450    21.9030    11.4240 ca         1 MOL      -0.191000
      5 C4           6.5270    22.5860    10.2040 ca         1 MOL      -0.058000
      6 C5           8.6760    21.2540    11.4240 ca         1 MOL      -0.191000
      7 C6           8.8570    21.9460    10.2150 ca         1 MOL      -0.058000
      8 C7           8.0140    23.4010     8.5130 cc         1 MOL       0.505400
      9 N1           9.2110    23.4430     7.8730 na         1 MOL      -0.283300
     10 C8           9.1370    24.1440     6.6650 ca         1 MOL      -0.082200
     11 C9           7.8120    24.6580     6.8520 ca         1 MOL       0.099400
     12 N2           7.0660    24.1400     7.9100 nd         1 MOL      -0.562100
     13 C10          7.5050    25.7430     5.9860 ca         1 MOL      -0.074000
     14 C11          8.3810    26.2100     4.9880 ca         1 MOL      -0.105000
     15 C12          9.6280    25.6040     4.8010 ca         1 MOL      -0.127900
     16 C13         10.0350    24.5760     5.6760 ca         1 MOL      -0.115000
     17 C14         10.3270    25.8590     3.6230 cc         1 MOL       0.509400
     18 N3          11.4430    25.1860     3.2370 na         1 MOL      -0.277300
     19 C15         12.1070    25.7940     2.1740 ca         1 MOL      -0.081200
     20 C16         11.2310    26.8960     2.0140 ca         1 MOL       0.092400
     21 N4          10.1790    26.9900     2.9110 nd         1 MOL      -0.554100
     22 C17         11.5340    27.7290     0.9130 ca         1 MOL      -0.054000
     23 C18         12.5280    27.4360    -0.0290 ca         1 MOL      -0.178000
     24 C19         13.2620    26.2700     0.1140 ca         1 MOL       0.045600
     25 C20         13.1060    25.4750     1.2500 ca         1 MOL      -0.089000
     26 N5          14.0220    25.8600    -0.9000 nh         1 MOL      -0.616000
     27 C21         13.4760    25.8440    -2.2410 c3         1 MOL       0.145800
     28 C22         14.1690    24.9220    -3.1170 c3         1 MOL       0.105800
     29 N6          15.6080    25.2720    -3.2260 nx         1 MOL      -0.683400
     30 C23         16.1750    25.2900    -1.8540 c3         1 MOL       0.105800
     31 C24         15.4270    26.1770    -0.9850 c3         1 MOL       0.145800
     32 C25         16.3930    24.4170    -4.1500 c3         1 MOL       0.084100
     33 H1           8.0300    19.9020    13.3090 ho         1 MOL       0.426000
     34 H2           5.3810    21.9330    11.9100 ha         1 MOL       0.152500
     35 H3           5.7010    23.1060     9.7410 ha         1 MOL       0.146500
     36 H4           9.5190    20.7760    11.9000 ha         1 MOL       0.152500
     37 H5           9.8380    21.9800     9.7640 ha         1 MOL       0.146500
     38 H6          10.0190    22.9970     8.2830 hn         1 MOL       0.308700
     39 H7           6.5580    26.2540     6.0760 ha         1 MOL       0.162000
     40 H8           8.0920    27.0410     4.3610 ha         1 MOL       0.157000
     41 H9          11.0120    24.1220     5.5980 ha         1 MOL       0.132000
     42 H10         11.7100    24.3360     3.7130 hn         1 MOL       0.313700
     43 H11         10.9860    28.6480     0.7640 ha         1 MOL       0.164000
     44 H12         12.7110    28.1140    -0.8490 ha         1 MOL       0.123000
     45 H13         13.7460    24.6220     1.4200 ha         1 MOL       0.149000
     46 H14         13.5220    26.8480    -2.6630 h1         1 MOL       0.080450
     47 H15         12.4200    25.5790    -2.1990 h1         1 MOL       0.080450
     48 H16         13.7130    24.9490    -4.1070 hx         1 MOL       0.107700
     49 H17         14.0700    23.9090    -2.7280 hx         1 MOL       0.107700
     50 H18         15.6580    26.2160    -3.5800 hn         1 MOL       0.445800
     51 H19         17.2150    25.6140    -1.8950 hx         1 MOL       0.107700
     52 H20         16.1600    24.2810    -1.4420 hx         1 MOL       0.107700
     53 H21         15.8630    26.1570     0.0140 h1         1 MOL       0.080450
     54 H22         15.5460    27.2050    -1.3290 h1         1 MOL       0.080450
     55 H23         17.4310    24.7510    -4.1610 hx         1 MOL       0.104700
     56 H24         16.3490    23.3810    -3.8130 hx         1 MOL       0.104700
     57 H25         15.9770    24.4900    -5.1550 hx         1 MOL       0.104700
@<TRIPOS>BOND
     1     1     2 1   
     2     1    33 1   
     3     2     4 ar  
     4     2     6 ar  
     5     3     5 ar  
     6     3     7 ar  
     7     3     8 1   
     8     4     5 ar  
     9     4    34 1   
    10     5    35 1   
    11     6     7 ar  
    12     6    36 1   
    13     7    37 1   
    14     8     9 1   
    15     8    12 2   
    16     9    10 1   
    17     9    38 1   
    18    10    11 ar  
    19    10    16 ar  
    20    11    12 1   
    21    11    13 ar  
    22    13    14 ar  
    23    13    39 1   
    24    14    15 ar  
    25    14    40 1   
    26    15    16 ar  
    27    15    17 1   
    28    16    41 1   
    29    17    18 1   
    30    17    21 2   
    31    18    19 1   
    32    18    42 1   
    33    19    20 ar  
    34    19    25 ar  
    35    20    21 1   
    36    20    22 ar  
    37    22    23 ar  
    38    22    43 1   
    39    23    24 ar  
    40    23    44 1   
    41    24    25 ar  
    42    24    26 1   
    43    25    45 1   
    44    26    27 1   
    45    26    31 1   
    46    27    28 1   
    47    27    46 1   
    48    27    47 1   
    49    28    29 1   
    50    28    48 1   
    51    28    49 1   
    52    29    30 1   
    53    29    32 1   
    54    29    50 1   
    55    30    31 1   
    56    30    51 1   
    57    30    52 1   
    58    31    53 1   
    59    31    54 1   
    60    32    55 1   
    61    32    56 1   
    62    32    57 1   
@<TRIPOS>SUBSTRUCTURE
     1 MOL         1 TEMP              0 ****  ****    0 ROOT
