
                    3D
 Schrodinger Suite 2021-1.
 79 84  0  0  1  0            999 V2000
   29.0390   31.4820   35.8180 C   0  0  0  0  0  0
   28.0940   30.4570   35.7080 C   0  0  0  0  0  0
   26.9650   30.6020   34.9090 C   0  0  0  0  0  0
   26.7840   31.7590   34.1680 C   0  0  0  0  0  0
   27.7090   32.7940   34.2380 C   0  0  0  0  0  0
   28.8390   32.6770   35.0870 C   0  0  0  0  0  0
   27.4850   33.8820   33.4620 N   0  0  0  0  0  0
   29.7210   33.7080   35.1700 N   0  0  0  0  0  0
   28.3850   34.8900   33.5460 C   0  0  0  0  0  0
   29.4940   34.8200   34.4200 C   0  0  0  0  0  0
   28.1870   36.0260   32.7710 C   0  0  0  0  0  0
   29.0540   37.1120   32.8710 C   0  0  0  0  0  0
   30.1300   37.0600   33.7510 C   0  0  0  0  0  0
   30.3590   35.9170   34.5210 C   0  0  0  0  0  0
   31.5270   35.9040   35.5000 C   0  0  0  0  0  0
   30.2240   31.2050   36.7110 C   0  0  0  0  0  0
   30.3650   30.1620   37.3230 O   0  0  0  0  0  0
   31.1760   32.1400   36.8210 N   0  0  0  0  0  0
   32.3810   32.0510   37.6550 C   0  0  0  0  0  0
   33.4950   31.2620   36.9380 C   0  0  0  0  0  0
   33.9060   31.8240   35.5870 N   0  0  1  0  0  0
   34.8830   30.9020   34.8820 C   0  0  0  0  0  0
   35.9680   28.5030   30.2510 N   0  0  0  0  0  0
   36.2190   29.6420   29.5990 C   0  0  0  0  0  0
   36.9800   30.4290   30.1280 O   0  0  0  0  0  0
   35.4990   29.9300   28.3090 C   0  0  0  0  0  0
   35.7710   31.1660   27.7110 C   0  0  0  0  0  0
   35.0870   31.5770   26.5740 C   0  0  0  0  0  0
   34.0800   30.7810   26.0500 C   0  0  0  0  0  0
   33.8000   29.5370   26.6040 C   0  0  0  0  0  0
   32.8130   28.8060   26.0320 N   0  0  0  0  0  0
   32.6010   27.5660   26.5310 C   0  0  0  0  0  0
   33.3940   27.0440   27.5790 C   0  0  0  0  0  0
   34.3430   27.8100   28.1820 N   0  0  0  0  0  0
   34.5490   29.0710   27.7140 C   0  0  0  0  0  0
   33.2090   25.7120   27.9820 C   0  0  0  0  0  0
   32.2220   24.9300   27.3740 C   0  0  0  0  0  0
   31.4160   25.4630   26.3740 C   0  0  0  0  0  0
   31.6080   26.7770   25.9580 C   0  0  0  0  0  0
   34.1100   25.0770   29.0350 C   0  0  0  0  0  0
   36.5070   28.1330   31.5670 C   0  0  0  0  0  0
   35.7880   28.9130   32.6860 C   0  0  0  0  0  0
   36.2020   30.3670   32.7440 N   0  3  0  0  0  0
   35.1730   31.2640   33.4040 C   0  0  0  0  0  0
   28.2343   29.5328   36.2490 H   0  0  0  0  0  0
   26.2290   29.8128   34.8659 H   0  0  0  0  0  0
   25.9189   31.8617   33.5297 H   0  0  0  0  0  0
   27.3553   36.0725   32.0836 H   0  0  0  0  0  0
   28.8898   37.9915   32.2661 H   0  0  0  0  0  0
   30.7945   37.9065   33.8421 H   0  0  0  0  0  0
   32.0745   36.8436   35.4257 H   0  0  0  0  0  0
   31.1494   35.7835   36.5154 H   0  0  0  0  0  0
   32.1936   35.0756   35.2601 H   0  0  0  0  0  0
   31.0996   33.0022   36.3005 H   0  0  0  0  0  0
   32.1355   31.5585   38.5959 H   0  0  0  0  0  0
   32.7379   33.0548   37.8852 H   0  0  0  0  0  0
   33.1820   30.2249   36.8172 H   0  0  0  0  0  0
   34.3698   31.2036   37.5856 H   0  0  0  0  0  0
   33.0884   31.9323   35.0040 H   0  0  0  0  0  0
   34.5155   29.8773   34.9369 H   0  0  0  0  0  0
   35.8204   30.8770   35.4377 H   0  0  0  0  0  0
   35.3605   27.8089   29.8395 H   0  0  0  0  0  0
   36.5226   31.8165   28.1334 H   0  0  0  0  0  0
   35.3402   32.5142   26.1008 H   0  0  0  0  0  0
   33.5046   31.1256   25.2035 H   0  0  0  0  0  0
   32.0812   23.9040   27.6803 H   0  0  0  0  0  0
   30.6439   24.8576   25.9227 H   0  0  0  0  0  0
   30.9764   27.1831   25.1817 H   0  0  0  0  0  0
   33.8016   24.0452   29.2035 H   0  0  0  0  0  0
   35.1433   25.0948   28.6884 H   0  0  0  0  0  0
   34.0303   25.6363   29.9672 H   0  0  0  0  0  0
   37.5738   28.3547   31.5977 H   0  0  0  0  0  0
   36.3729   27.0631   31.7264 H   0  0  0  0  0  0
   35.9923   28.4396   33.6464 H   0  0  0  0  0  0
   34.7101   28.8490   32.5372 H   0  0  0  0  0  0
   36.3867   30.7005   31.8087 H   0  0  0  0  0  0
   37.0804   30.4460   33.2362 H   0  0  0  0  0  0
   35.5053   32.3004   33.3441 H   0  0  0  0  0  0
   34.2444   31.2290   32.8343 H   0  0  0  0  0  0
  1  2  2  0  0  0
  1  6  1  0  0  0
  1 16  1  0  0  0
  2  3  1  0  0  0
  2 45  1  0  0  0
  3  4  2  0  0  0
  3 46  1  0  0  0
  4  5  1  0  0  0
  4 47  1  0  0  0
  5  6  1  0  0  0
  5  7  2  0  0  0
  6  8  2  0  0  0
  7  9  1  0  0  0
  8 10  1  0  0  0
  9 10  2  0  0  0
  9 11  1  0  0  0
 10 14  1  0  0  0
 11 12  2  0  0  0
 11 48  1  0  0  0
 12 13  1  0  0  0
 12 49  1  0  0  0
 13 14  2  0  0  0
 13 50  1  0  0  0
 14 15  1  0  0  0
 15 51  1  0  0  0
 15 52  1  0  0  0
 15 53  1  0  0  0
 16 17  2  0  0  0
 16 18  1  0  0  0
 18 19  1  0  0  0
 18 54  1  0  0  0
 19 20  1  0  0  0
 19 55  1  0  0  0
 19 56  1  0  0  0
 20 21  1  0  0  0
 20 57  1  0  0  0
 20 58  1  0  0  0
 21 22  1  0  0  0
 21 59  1  0  0  0
 22 44  1  0  0  0
 22 60  1  0  0  0
 22 61  1  0  0  0
 23 24  1  0  0  0
 23 41  1  0  0  0
 23 62  1  0  0  0
 24 25  2  0  0  0
 24 26  1  0  0  0
 26 27  2  0  0  0
 26 35  1  0  0  0
 27 28  1  0  0  0
 27 63  1  0  0  0
 28 29  2  0  0  0
 28 64  1  0  0  0
 29 30  1  0  0  0
 29 65  1  0  0  0
 30 31  2  0  0  0
 30 35  1  0  0  0
 31 32  1  0  0  0
 32 33  2  0  0  0
 32 39  1  0  0  0
 33 34  1  0  0  0
 33 36  1  0  0  0
 34 35  2  0  0  0
 36 37  2  0  0  0
 36 40  1  0  0  0
 37 38  1  0  0  0
 37 66  1  0  0  0
 38 39  2  0  0  0
 38 67  1  0  0  0
 39 68  1  0  0  0
 40 69  1  0  0  0
 40 70  1  0  0  0
 40 71  1  0  0  0
 41 42  1  0  0  0
 41 72  1  0  0  0
 41 73  1  0  0  0
 42 43  1  0  0  0
 42 74  1  0  0  0
 42 75  1  0  0  0
 43 44  1  0  0  0
 43 76  1  0  0  0
 43 77  1  0  0  0
 44 78  1  0  0  0
 44 79  1  0  0  0
M  CHG  1  43   1
M  END
> <s_pdb_PDB_format_version>
3.0

> <b_ppw_prepared>
1

> <s_ppw_prepared_with_version>
2021-1

> <s_ppw_het_states>
eJztllGOwjAMRK9S9RutajulZa+CuAHav/1C3H3t4BfKCdii7Md6xk0n0ySMchtl/B7O/ieHYbochrNmtawl65z1mHXJumY9ZZUJgKIgKWgKooKqICvoCsKCsqKszSvKirKirCgryoqyoqwoG8qGsrVlQNlQNpQNZUPZUDaUC8oF5YJycWWpoCoHik3wx1o/+zAcc4BDAftj3vNacrDXObvz8z2HSw7w1prQW6cc4K3YLsn9C6xgYfIYUCDRbQ4dCGYqwE4dj6FqHR+VrDwJgJcAipkAioMAsdPClhfsxLbrlpT2TliZc9JK2gI6UOwEMYzWLt4CxPlQDorhLUCcE20EgegaRgPE4dFG+NLoWtkSvEXXcB1dWzakNAfeNYwGMIzG9xccBHgeMmPdnE1f6xyrcxsX//U7O8bM47olJi+sbNkMm32+8agPtix2Pww/v9fr43890XvLlXbIdp0rU8+Vniv7zRVPkk2ueMrsP1f6faXnSs+VN+dKv6/801zp95WeKzvOlQ+8r3xGrvT7Ss+VN+SKeAiQKo4XyVAB10xppGzI/CCnSVuiPNhrolzuf0apd8s=

$$$$
