@<TRIPOS>MOLECULE
MOL
   79    84     1     0     0
SMALL
bcc


@<TRIPOS>ATOM
      1 C1          29.0390    31.4820    35.8180 ca         1 MOL      -0.215900
      2 C2          28.0940    30.4570    35.7080 ca         1 MOL      -0.045000
      3 C3          26.9650    30.6020    34.9090 ca         1 MOL      -0.138000
      4 C4          26.7840    31.7590    34.1680 ca         1 MOL      -0.128300
      5 C5          27.7090    32.7940    34.2380 ca         1 MOL       0.294300
      6 C6          28.8390    32.6770    35.0870 ca         1 MOL       0.313300
      7 N1          27.4850    33.8820    33.4620 nb         1 MOL      -0.598000
      8 N2          29.7210    33.7080    35.1700 nb         1 MOL      -0.673000
      9 C7          28.3850    34.8900    33.5460 ca         1 MOL       0.307300
     10 C8          29.4940    34.8200    34.4200 ca         1 MOL       0.322300
     11 C9          28.1870    36.0260    32.7710 ca         1 MOL      -0.161300
     12 C10         29.0540    37.1120    32.8710 ca         1 MOL      -0.110000
     13 C11         30.1300    37.0600    33.7510 ca         1 MOL      -0.098000
     14 C12         30.3590    35.9170    34.5210 ca         1 MOL      -0.136600
     15 C13         31.5270    35.9040    35.5000 c3         1 MOL      -0.043800
     16 C14         30.2240    31.2050    36.7110 c          1 MOL       0.697700
     17 O1          30.3650    30.1620    37.3230 o          1 MOL      -0.680100
     18 N3          31.1760    32.1400    36.8210 ns         1 MOL      -0.547900
     19 C15         32.3810    32.0510    37.6550 c3         1 MOL       0.081000
     20 C16         33.4950    31.2620    36.9380 c3         1 MOL       0.147800
     21 N4          33.9060    31.8240    35.5870 n7         1 MOL      -0.829200
     22 C17         34.8830    30.9020    34.8820 c3         1 MOL       0.170800
     23 N5          35.9680    28.5030    30.2510 ns         1 MOL      -0.570900
     24 C18         36.2190    29.6420    29.5990 c          1 MOL       0.695700
     25 O2          36.9800    30.4290    30.1280 o          1 MOL      -0.643100
     26 C19         35.4990    29.9300    28.3090 ca         1 MOL      -0.217900
     27 C20         35.7710    31.1660    27.7110 ca         1 MOL      -0.028000
     28 C21         35.0870    31.5770    26.5740 ca         1 MOL      -0.138000
     29 C22         34.0800    30.7810    26.0500 ca         1 MOL      -0.119300
     30 C23         33.8000    29.5370    26.6040 ca         1 MOL       0.298300
     31 N6          32.8130    28.8060    26.0320 nb         1 MOL      -0.589000
     32 C24         32.6010    27.5660    26.5310 ca         1 MOL       0.307300
     33 C25         33.3940    27.0440    27.5790 ca         1 MOL       0.330300
     34 N7          34.3430    27.8100    28.1820 nb         1 MOL      -0.696000
     35 C26         34.5490    29.0710    27.7140 ca         1 MOL       0.324300
     36 C27         33.2090    25.7120    27.9820 ca         1 MOL      -0.146600
     37 C28         32.2220    24.9300    27.3740 ca         1 MOL      -0.088000
     38 C29         31.4160    25.4630    26.3740 ca         1 MOL      -0.116000
     39 C30         31.6080    26.7770    25.9580 ca         1 MOL      -0.150300
     40 C31         34.1100    25.0770    29.0350 c3         1 MOL      -0.039800
     41 C32         36.5070    28.1330    31.5670 c3         1 MOL       0.073000
     42 C33         35.7880    28.9130    32.6860 c3         1 MOL       0.074800
     43 N8          36.2020    30.3670    32.7440 ny         1 MOL      -0.756000
     44 C34         35.1730    31.2640    33.4040 c3         1 MOL       0.043800
     45 H1          28.2340    29.5330    36.2490 ha         1 MOL       0.158000
     46 H2          26.2290    29.8130    34.8660 ha         1 MOL       0.159000
     47 H3          25.9190    31.8620    33.5300 ha         1 MOL       0.169000
     48 H4          27.3550    36.0720    32.0840 ha         1 MOL       0.166000
     49 H5          28.8900    37.9920    32.2660 ha         1 MOL       0.155000
     50 H6          30.7940    37.9070    33.8420 ha         1 MOL       0.151000
     51 H7          32.0750    36.8440    35.4260 hc         1 MOL       0.047033
     52 H8          31.1490    35.7830    36.5150 hc         1 MOL       0.047033
     53 H9          32.1940    35.0760    35.2600 hc         1 MOL       0.047033
     54 H10         31.1000    33.0020    36.3000 hn         1 MOL       0.334500
     55 H11         32.1360    31.5580    38.5960 h1         1 MOL       0.068200
     56 H12         32.7380    33.0550    37.8850 h1         1 MOL       0.068200
     57 H13         33.1820    30.2250    36.8170 h1         1 MOL       0.054200
     58 H14         34.3700    31.2040    37.5860 h1         1 MOL       0.054200
     59 H15         33.0880    31.9320    35.0040 hn         1 MOL       0.391800
     60 H16         34.5160    29.8770    34.9370 h1         1 MOL       0.074200
     61 H17         35.8200    30.8770    35.4380 h1         1 MOL       0.074200
     62 H18         35.3610    27.8090    29.8400 hn         1 MOL       0.340500
     63 H19         36.5230    31.8170    28.1330 ha         1 MOL       0.161000
     64 H20         35.3400    32.5140    26.1010 ha         1 MOL       0.162000
     65 H21         33.5050    31.1260    25.2030 ha         1 MOL       0.172000
     66 H22         32.0810    23.9040    27.6800 ha         1 MOL       0.148000
     67 H23         30.6440    24.8580    25.9230 ha         1 MOL       0.156000
     68 H24         30.9760    27.1830    25.1820 ha         1 MOL       0.169000
     69 H25         33.8020    24.0450    29.2030 hc         1 MOL       0.039700
     70 H26         35.1430    25.0950    28.6880 hc         1 MOL       0.039700
     71 H27         34.0300    25.6360    29.9670 hc         1 MOL       0.039700
     72 H28         37.5740    28.3550    31.5980 h1         1 MOL       0.091700
     73 H29         36.3730    27.0630    31.7260 h1         1 MOL       0.091700
     74 H30         35.9920    28.4400    33.6460 hx         1 MOL       0.120700
     75 H31         34.7100    28.8490    32.5370 hx         1 MOL       0.120700
     76 H32         36.3870    30.7010    31.8090 hn         1 MOL       0.465300
     77 H33         37.0800    30.4460    33.2360 hn         1 MOL       0.465300
     78 H34         35.5050    32.3000    33.3440 hx         1 MOL       0.109200
     79 H35         34.2440    31.2290    32.8340 hx         1 MOL       0.109200
@<TRIPOS>BOND
     1     1     2 ar  
     2     1     6 ar  
     3     1    16 1   
     4     2     3 ar  
     5     2    45 1   
     6     3     4 ar  
     7     3    46 1   
     8     4     5 ar  
     9     4    47 1   
    10     5     6 ar  
    11     5     7 ar  
    12     6     8 ar  
    13     7     9 ar  
    14     8    10 ar  
    15     9    10 ar  
    16     9    11 ar  
    17    10    14 ar  
    18    11    12 ar  
    19    11    48 1   
    20    12    13 ar  
    21    12    49 1   
    22    13    14 ar  
    23    13    50 1   
    24    14    15 1   
    25    15    51 1   
    26    15    52 1   
    27    15    53 1   
    28    16    17 2   
    29    16    18 1   
    30    18    19 1   
    31    18    54 1   
    32    19    20 1   
    33    19    55 1   
    34    19    56 1   
    35    20    21 1   
    36    20    57 1   
    37    20    58 1   
    38    21    22 1   
    39    21    59 1   
    40    22    44 1   
    41    22    60 1   
    42    22    61 1   
    43    23    24 1   
    44    23    41 1   
    45    23    62 1   
    46    24    25 2   
    47    24    26 1   
    48    26    27 ar  
    49    26    35 ar  
    50    27    28 ar  
    51    27    63 1   
    52    28    29 ar  
    53    28    64 1   
    54    29    30 ar  
    55    29    65 1   
    56    30    31 ar  
    57    30    35 ar  
    58    31    32 ar  
    59    32    33 ar  
    60    32    39 ar  
    61    33    34 ar  
    62    33    36 ar  
    63    34    35 ar  
    64    36    37 ar  
    65    36    40 1   
    66    37    38 ar  
    67    37    66 1   
    68    38    39 ar  
    69    38    67 1   
    70    39    68 1   
    71    40    69 1   
    72    40    70 1   
    73    40    71 1   
    74    41    42 1   
    75    41    72 1   
    76    41    73 1   
    77    42    43 1   
    78    42    74 1   
    79    42    75 1   
    80    43    44 1   
    81    43    76 1   
    82    43    77 1   
    83    44    78 1   
    84    44    79 1   
@<TRIPOS>SUBSTRUCTURE
     1 MOL         1 TEMP              0 ****  ****    0 ROOT
