
                    3D
 Schrodinger Suite 2021-1.
 57 62  0  0  1  0            999 V2000
   11.1420   17.4130   16.7450 O   0  0  0  0  0  0
   10.6070   18.1310   15.8660 C   0  0  0  0  0  0
    9.5650   19.7420   13.8500 C   0  0  0  0  0  0
   11.5000   18.8450   15.0330 C   0  0  0  0  0  0
   10.9350   19.6040   14.0160 C   0  0  0  0  0  0
    9.2270   18.2120   15.6940 C   0  0  0  0  0  0
    8.6790   19.0080   14.6830 C   0  0  0  0  0  0
    9.0600   20.4360   12.7600 C   0  0  0  0  0  0
    9.8090   21.0650   11.7290 N   0  0  0  0  0  0
    8.8710   21.6090   10.8170 C   0  0  0  0  0  0
    7.5110   21.3410   11.2600 C   0  0  0  0  0  0
    7.7180   20.5980   12.4690 N   0  0  0  0  0  0
    6.4660   21.8120   10.4600 C   0  0  0  0  0  0
    6.7410   22.5420    9.2840 C   0  0  0  0  0  0
    8.0480   22.7450    8.8810 C   0  0  0  0  0  0
    9.1530   22.2870    9.7070 C   0  0  0  0  0  0
    8.4070   23.5000    7.8170 C   0  0  0  0  0  0
    9.6710   23.3780    7.1630 N   0  0  0  0  0  0
    9.7740   24.3720    6.2380 C   0  0  0  0  0  0
    8.5830   25.1920    6.3300 C   0  0  0  0  0  0
    7.7910   24.6650    7.3020 N   0  0  0  0  0  0
    8.4290   26.2350    5.5240 C   0  0  0  0  0  0
    9.4610   26.5430    4.5660 C   0  0  0  0  0  0
   10.6020   25.7440    4.4740 C   0  0  0  0  0  0
   10.7450   24.6320    5.3460 C   0  0  0  0  0  0
   11.5430   25.9590    3.5550 N   0  0  0  0  0  0
   11.2120   26.9000    2.5040 C   0  0  0  0  0  0
   12.4510   27.4600    1.9960 C   0  0  0  0  0  0
   13.2990   26.4340    1.5400 N   0  3  0  0  0  0
   13.2740   25.1720    2.0950 C   0  0  0  0  0  0
   12.3730   24.8920    3.1320 C   0  0  0  0  0  0
   13.2210   26.4260    0.1590 C   0  0  0  0  0  0
   10.4603   16.9713   17.2566 H   0  0  0  0  0  0
   12.5645   18.7832   15.2042 H   0  0  0  0  0  0
   11.6138   20.0989   13.3372 H   0  0  0  0  0  0
    8.5682   17.6566   16.3451 H   0  0  0  0  0  0
    7.6123   19.0735   14.5270 H   0  0  0  0  0  0
   10.8185   21.0543   11.7597 H   0  0  0  0  0  0
    5.4413   21.6179   10.7407 H   0  0  0  0  0  0
    5.9294   22.9441    8.6958 H   0  0  0  0  0  0
   10.1810   22.4836    9.4408 H   0  0  0  0  0  0
   10.3056   22.6371    7.4247 H   0  0  0  0  0  0
    7.5381   26.8419    5.5904 H   0  0  0  0  0  0
    9.3545   27.3968    3.9132 H   0  0  0  0  0  0
   11.6189   23.9992    5.2993 H   0  0  0  0  0  0
   10.5938   27.6988    2.9136 H   0  0  0  0  0  0
   10.6930   26.3782    1.6999 H   0  0  0  0  0  0
   12.9495   28.0174    2.7890 H   0  0  0  0  0  0
   12.2313   28.1415    1.1742 H   0  0  0  0  0  0
   14.2297   26.7742    1.7354 H   0  0  0  0  0  0
   14.2806   24.9065    2.4182 H   0  0  0  0  0  0
   13.1401   24.4377    1.3007 H   0  0  0  0  0  0
   11.7502   24.0440    2.8472 H   0  0  0  0  0  0
   12.9222   24.5028    3.9893 H   0  0  0  0  0  0
   13.8661   25.6419   -0.2373 H   0  0  0  0  0  0
   12.1917   26.2377   -0.1462 H   0  0  0  0  0  0
   13.5436   27.3921   -0.2293 H   0  0  0  0  0  0
  1  2  1  0  0  0
  1 33  1  0  0  0
  2  4  2  0  0  0
  2  6  1  0  0  0
  3  5  2  0  0  0
  3  7  1  0  0  0
  3  8  1  0  0  0
  4  5  1  0  0  0
  4 34  1  0  0  0
  5 35  1  0  0  0
  6  7  2  0  0  0
  6 36  1  0  0  0
  7 37  1  0  0  0
  8  9  1  0  0  0
  8 12  2  0  0  0
  9 10  1  0  0  0
  9 38  1  0  0  0
 10 11  2  0  0  0
 10 16  1  0  0  0
 11 12  1  0  0  0
 11 13  1  0  0  0
 13 14  2  0  0  0
 13 39  1  0  0  0
 14 15  1  0  0  0
 14 40  1  0  0  0
 15 16  2  0  0  0
 15 17  1  0  0  0
 16 41  1  0  0  0
 17 18  1  0  0  0
 17 21  2  0  0  0
 18 19  1  0  0  0
 18 42  1  0  0  0
 19 20  2  0  0  0
 19 25  1  0  0  0
 20 21  1  0  0  0
 20 22  1  0  0  0
 22 23  2  0  0  0
 22 43  1  0  0  0
 23 24  1  0  0  0
 23 44  1  0  0  0
 24 25  2  0  0  0
 24 26  1  0  0  0
 25 45  1  0  0  0
 26 27  1  0  0  0
 26 31  1  0  0  0
 27 28  1  0  0  0
 27 46  1  0  0  0
 27 47  1  0  0  0
 28 29  1  0  0  0
 28 48  1  0  0  0
 28 49  1  0  0  0
 29 30  1  0  0  0
 29 32  1  0  0  0
 29 50  1  0  0  0
 30 31  1  0  0  0
 30 51  1  0  0  0
 30 52  1  0  0  0
 31 53  1  0  0  0
 31 54  1  0  0  0
 32 55  1  0  0  0
 32 56  1  0  0  0
 32 57  1  0  0  0
M  CHG  1  29   1
M  END
> <s_pdb_PDB_format_version>
3.0

> <b_ppw_prepared>
1

> <s_ppw_prepared_with_version>
2021-1

> <s_ppw_het_states>
eJztmUlu4zAQRa9iaG0QrIFTXyXIDYLe9crI3ZtF8VNELxuOYdnMIjWQ+qIoPVRJvm20/bp81D+6Xvzn9fLB3Uq32m3oNnabus3dlm7Jw4EiQZKgSRAlqBJkCboEYYIyQ5nHWqHMUGYoM5QZygxlhjJXZWrXCmWBsjRl82xjuM+rtupzdyOOvl5Cz1Y3HdncXW0TqO9e6nPrKM5vE7mnLed7vjnUB1qAc1qWeA4EgTlYpTmEczcnYsQCrLU5eQp4nNSyWKY5dhN4BJBuWZqDsWV2XYJNM0cxorsAjwAXZw6nKZAhbWvDQs0Zt9Ac8XOAFVh2F6iRd0Wr4G0jrs89OcpVcWODwIakHrhJbkPiY5XYdJ/IJfH39fL7z9fX/r89G2ejZtySk1MDdyCwqPlhanISw6bsMGS7jh0NdYliPj8ar1JQFhqPRqOEOKHhg04VpUg4aojoK4DyKjVkdV4PBYWcpxSm1qt2VOHotpR8nkqKpvODsirKD4DCMyj0mqAEVjoqSpL2VkI7JxR9WWg8CxpPVUPeAo2gOtWQVFq3BTaK7SUqSiENDydl3MRFyhOT8g7dVkl23G1/E6lhiePbVnScgqDbYies5wdlvZYsUP4DFHv62TjpZCRfBhnREWd6OBp377buhYZfaLwZGqIyui12kZRRQ9glTuPbVnCZKZ6flHt1W4uUdyMl5DyREkop+ArMjqPM3By/nbCVm38KzOf3X2pkiX4=

$$$$
