@<TRIPOS>MOLECULE
MOL
   57    62     1     0     0
SMALL
bcc


@<TRIPOS>ATOM
      1 O1          11.1420    17.4130    16.7450 oh         1 MOL      -0.488100
      2 C1          10.6070    18.1310    15.8660 ca         1 MOL       0.152100
      3 C2           9.5650    19.7420    13.8500 ca         1 MOL      -0.172900
      4 C3          11.5000    18.8450    15.0330 ca         1 MOL      -0.191500
      5 C4          10.9350    19.6040    14.0160 ca         1 MOL      -0.057000
      6 C5           9.2270    18.2120    15.6940 ca         1 MOL      -0.191500
      7 C6           8.6790    19.0080    14.6830 ca         1 MOL      -0.057000
      8 C7           9.0600    20.4360    12.7600 cc         1 MOL       0.505400
      9 N1           9.8090    21.0650    11.7290 na         1 MOL      -0.282300
     10 C8           8.8710    21.6090    10.8170 ca         1 MOL      -0.082200
     11 C9           7.5110    21.3410    11.2600 ca         1 MOL       0.100400
     12 N2           7.7180    20.5980    12.4690 nd         1 MOL      -0.564100
     13 C10          6.4660    21.8120    10.4600 ca         1 MOL      -0.075000
     14 C11          6.7410    22.5420     9.2840 ca         1 MOL      -0.105000
     15 C12          8.0480    22.7450     8.8810 ca         1 MOL      -0.128900
     16 C13          9.1530    22.2870     9.7070 ca         1 MOL      -0.114000
     17 C14          8.4070    23.5000     7.8170 cc         1 MOL       0.510400
     18 N3           9.6710    23.3780     7.1630 na         1 MOL      -0.277300
     19 C15          9.7740    24.3720     6.2380 ca         1 MOL      -0.080200
     20 C16          8.5830    25.1920     6.3300 ca         1 MOL       0.093400
     21 N4           7.7910    24.6650     7.3020 nd         1 MOL      -0.554100
     22 C17          8.4290    26.2350     5.5240 ca         1 MOL      -0.053000
     23 C18          9.4610    26.5430     4.5660 ca         1 MOL      -0.178000
     24 C19         10.6020    25.7440     4.4740 ca         1 MOL       0.046600
     25 C20         10.7450    24.6320     5.3460 ca         1 MOL      -0.090000
     26 N5          11.5430    25.9590     3.5550 nh         1 MOL      -0.622000
     27 C21         11.2120    26.9000     2.5040 c3         1 MOL       0.143800
     28 C22         12.4510    27.4600     1.9960 c3         1 MOL       0.104800
     29 N6          13.2990    26.4340     1.5400 nx         1 MOL      -0.676400
     30 C23         13.2740    25.1720     2.0950 c3         1 MOL       0.104800
     31 C24         12.3730    24.8920     3.1320 c3         1 MOL       0.143800
     32 C25         13.2210    26.4260     0.1590 c3         1 MOL       0.083100
     33 H1          10.4600    16.9710    17.2570 ho         1 MOL       0.428000
     34 H2          12.5650    18.7830    15.2040 ha         1 MOL       0.152000
     35 H3          11.6140    20.0990    13.3370 ha         1 MOL       0.146000
     36 H4           8.5680    17.6570    16.3450 ha         1 MOL       0.152000
     37 H5           7.6120    19.0730    14.5270 ha         1 MOL       0.146000
     38 H6          10.8190    21.0540    11.7600 hn         1 MOL       0.309700
     39 H7           5.4410    21.6180    10.7410 ha         1 MOL       0.161000
     40 H8           5.9290    22.9440     8.6960 ha         1 MOL       0.157000
     41 H9          10.1810    22.4840     9.4410 ha         1 MOL       0.132000
     42 H10         10.3060    22.6370     7.4250 hn         1 MOL       0.313700
     43 H11          7.5380    26.8420     5.5900 ha         1 MOL       0.164000
     44 H12          9.3540    27.3970     3.9130 ha         1 MOL       0.126000
     45 H13         11.6190    23.9990     5.2990 ha         1 MOL       0.146000
     46 H14         10.5940    27.6990     2.9140 h1         1 MOL       0.083700
     47 H15         10.6930    26.3780     1.7000 h1         1 MOL       0.083700
     48 H16         12.9500    28.0170     2.7890 hx         1 MOL       0.102700
     49 H17         12.2310    28.1420     1.1740 hx         1 MOL       0.102700
     50 H18         14.2300    26.7740     1.7350 hn         1 MOL       0.458800
     51 H19         14.2810    24.9070     2.4180 hx         1 MOL       0.102700
     52 H20         13.1400    24.4380     1.3010 hx         1 MOL       0.102700
     53 H21         11.7500    24.0440     2.8470 h1         1 MOL       0.083700
     54 H22         12.9220    24.5030     3.9890 h1         1 MOL       0.083700
     55 H23         13.8660    25.6420    -0.2370 hx         1 MOL       0.104033
     56 H24         12.1920    26.2380    -0.1460 hx         1 MOL       0.104033
     57 H25         13.5440    27.3920    -0.2290 hx         1 MOL       0.104033
@<TRIPOS>BOND
     1     1     2 1   
     2     1    33 1   
     3     2     4 ar  
     4     2     6 ar  
     5     3     5 ar  
     6     3     7 ar  
     7     3     8 1   
     8     4     5 ar  
     9     4    34 1   
    10     5    35 1   
    11     6     7 ar  
    12     6    36 1   
    13     7    37 1   
    14     8     9 1   
    15     8    12 2   
    16     9    10 1   
    17     9    38 1   
    18    10    11 ar  
    19    10    16 ar  
    20    11    12 1   
    21    11    13 ar  
    22    13    14 ar  
    23    13    39 1   
    24    14    15 ar  
    25    14    40 1   
    26    15    16 ar  
    27    15    17 1   
    28    16    41 1   
    29    17    18 1   
    30    17    21 2   
    31    18    19 1   
    32    18    42 1   
    33    19    20 ar  
    34    19    25 ar  
    35    20    21 1   
    36    20    22 ar  
    37    22    23 ar  
    38    22    43 1   
    39    23    24 ar  
    40    23    44 1   
    41    24    25 ar  
    42    24    26 1   
    43    25    45 1   
    44    26    27 1   
    45    26    31 1   
    46    27    28 1   
    47    27    46 1   
    48    27    47 1   
    49    28    29 1   
    50    28    48 1   
    51    28    49 1   
    52    29    30 1   
    53    29    32 1   
    54    29    50 1   
    55    30    31 1   
    56    30    51 1   
    57    30    52 1   
    58    31    53 1   
    59    31    54 1   
    60    32    55 1   
    61    32    56 1   
    62    32    57 1   
@<TRIPOS>SUBSTRUCTURE
     1 MOL         1 TEMP              0 ****  ****    0 ROOT
