
                    3D
 Schrodinger Suite 2021-1.
 79 84  0  0  1  0            999 V2000
   34.0130   35.4420   34.0650 C   0  0  0  0  0  0
   32.8960   36.2850   34.0200 C   0  0  0  0  0  0
   32.3620   36.7010   32.8070 C   0  0  0  0  0  0
   32.9470   36.2830   31.6180 C   0  0  0  0  0  0
   34.0680   35.4580   31.6250 C   0  0  0  0  0  0
   34.6230   35.0350   32.8600 C   0  0  0  0  0  0
   34.5790   35.0750   30.4290 N   0  0  0  0  0  0
   35.7290   34.2420   32.8660 N   0  0  0  0  0  0
   35.6800   34.2870   30.4570 C   0  0  0  0  0  0
   36.2720   33.8810   31.6750 C   0  0  0  0  0  0
   36.2460   33.8790   29.2510 C   0  0  0  0  0  0
   37.3960   33.0940   29.2340 C   0  0  0  0  0  0
   37.9910   32.7090   30.4300 C   0  0  0  0  0  0
   37.4340   33.0930   31.6520 C   0  0  0  0  0  0
   38.1200   32.6670   32.9450 C   0  0  0  0  0  0
   34.4410   34.9860   35.4320 C   0  0  0  0  0  0
   33.9170   35.3830   36.4490 O   0  0  0  0  0  0
   35.3870   34.0490   35.5430 N   0  0  0  0  0  0
   35.8030   33.4270   36.8020 C   0  0  0  0  0  0
   34.6670   32.5580   37.3800 C   0  0  0  0  0  0
   34.1210   31.5210   36.4110 N   0  0  1  0  0  0
   33.1950   30.5360   37.0960 C   0  0  0  0  0  0
   29.2330   27.3170   35.7670 N   0  0  0  0  0  0
   30.0310   26.6120   34.9590 C   0  0  0  0  0  0
   31.0530   26.1580   35.4450 O   0  0  0  0  0  0
   29.7000   26.5100   33.4940 C   0  0  0  0  0  0
   30.6280   25.8330   32.6920 C   0  0  0  0  0  0
   30.4880   25.7910   31.3110 C   0  0  0  0  0  0
   29.4160   26.4350   30.7080 C   0  0  0  0  0  0
   28.4660   27.1040   31.4710 C   0  0  0  0  0  0
   27.4670   27.7430   30.8130 N   0  0  0  0  0  0
   26.5300   28.3600   31.5710 C   0  0  0  0  0  0
   26.5890   28.3420   32.9820 C   0  0  0  0  0  0
   27.6250   27.7430   33.6280 N   0  0  0  0  0  0
   28.5790   27.1190   32.8860 C   0  0  0  0  0  0
   25.5630   28.9480   33.7250 C   0  0  0  0  0  0
   24.5030   29.5760   33.0660 C   0  0  0  0  0  0
   24.4600   29.6120   31.6750 C   0  0  0  0  0  0
   25.4730   29.0070   30.9350 C   0  0  0  0  0  0
   25.5780   28.9140   35.2500 C   0  0  0  0  0  0
   29.4920   27.6610   37.1710 C   0  0  0  0  0  0
   30.5520   28.7780   37.2610 C   0  0  0  0  0  0
   31.9430   28.2810   36.9090 N   0  3  0  0  0  0
   32.8050   29.3280   36.2180 C   0  0  0  0  0  0
   32.4363   36.6217   34.9374 H   0  0  0  0  0  0
   31.4961   37.3463   32.7911 H   0  0  0  0  0  0
   32.5321   36.5982   30.6720 H   0  0  0  0  0  0
   35.7926   34.1715   28.3154 H   0  0  0  0  0  0
   37.8249   32.7848   28.2923 H   0  0  0  0  0  0
   38.8892   32.1095   30.4178 H   0  0  0  0  0  0
   38.9979   32.0652   32.7099 H   0  0  0  0  0  0
   38.4256   33.5518   33.5033 H   0  0  0  0  0  0
   37.4277   32.0790   33.5475 H   0  0  0  0  0  0
   35.8721   33.7212   34.7200 H   0  0  0  0  0  0
   36.0677   34.2030   37.5202 H   0  0  0  0  0  0
   36.6818   32.8063   36.6272 H   0  0  0  0  0  0
   33.8543   33.2023   37.7154 H   0  0  0  0  0  0
   35.0178   32.0590   38.2833 H   0  0  0  0  0  0
   33.6022   31.9842   35.6786 H   0  0  0  0  0  0
   32.2922   31.0538   37.4199 H   0  0  0  0  0  0
   33.6618   30.1797   38.0143 H   0  0  0  0  0  0
   28.3516   27.6707   35.4233 H   0  0  0  0  0  0
   31.4702   25.3320   33.1461 H   0  0  0  0  0  0
   31.2113   25.2590   30.7108 H   0  0  0  0  0  0
   29.3124   26.4202   29.6331 H   0  0  0  0  0  0
   23.7102   30.0375   33.6360 H   0  0  0  0  0  0
   23.6427   30.1081   31.1727 H   0  0  0  0  0  0
   25.4327   29.0434   29.8564 H   0  0  0  0  0  0
   24.7015   29.4358   35.6342 H   0  0  0  0  0  0
   25.5624   27.8788   35.5910 H   0  0  0  0  0  0
   26.4808   29.4030   35.6160 H   0  0  0  0  0  0
   29.8491   26.7781   37.7012 H   0  0  0  0  0  0
   28.5673   27.9995   37.6384 H   0  0  0  0  0  0
   30.5590   29.1905   38.2699 H   0  0  0  0  0  0
   30.2778   29.5927   36.5908 H   0  0  0  0  0  0
   31.8679   27.4654   36.3180 H   0  0  0  0  0  0
   32.4081   27.9644   37.7478 H   0  0  0  0  0  0
   33.7087   28.8547   35.8340 H   0  0  0  0  0  0
   32.2934   29.6828   35.3233 H   0  0  0  0  0  0
  1  2  2  0  0  0
  1  6  1  0  0  0
  1 16  1  0  0  0
  2  3  1  0  0  0
  2 45  1  0  0  0
  3  4  2  0  0  0
  3 46  1  0  0  0
  4  5  1  0  0  0
  4 47  1  0  0  0
  5  6  1  0  0  0
  5  7  2  0  0  0
  6  8  2  0  0  0
  7  9  1  0  0  0
  8 10  1  0  0  0
  9 10  2  0  0  0
  9 11  1  0  0  0
 10 14  1  0  0  0
 11 12  2  0  0  0
 11 48  1  0  0  0
 12 13  1  0  0  0
 12 49  1  0  0  0
 13 14  2  0  0  0
 13 50  1  0  0  0
 14 15  1  0  0  0
 15 51  1  0  0  0
 15 52  1  0  0  0
 15 53  1  0  0  0
 16 17  2  0  0  0
 16 18  1  0  0  0
 18 19  1  0  0  0
 18 54  1  0  0  0
 19 20  1  0  0  0
 19 55  1  0  0  0
 19 56  1  0  0  0
 20 21  1  0  0  0
 20 57  1  0  0  0
 20 58  1  0  0  0
 21 22  1  0  0  0
 21 59  1  0  0  0
 22 44  1  0  0  0
 22 60  1  0  0  0
 22 61  1  0  0  0
 23 24  1  0  0  0
 23 41  1  0  0  0
 23 62  1  0  0  0
 24 25  2  0  0  0
 24 26  1  0  0  0
 26 27  2  0  0  0
 26 35  1  0  0  0
 27 28  1  0  0  0
 27 63  1  0  0  0
 28 29  2  0  0  0
 28 64  1  0  0  0
 29 30  1  0  0  0
 29 65  1  0  0  0
 30 31  2  0  0  0
 30 35  1  0  0  0
 31 32  1  0  0  0
 32 33  2  0  0  0
 32 39  1  0  0  0
 33 34  1  0  0  0
 33 36  1  0  0  0
 34 35  2  0  0  0
 36 37  2  0  0  0
 36 40  1  0  0  0
 37 38  1  0  0  0
 37 66  1  0  0  0
 38 39  2  0  0  0
 38 67  1  0  0  0
 39 68  1  0  0  0
 40 69  1  0  0  0
 40 70  1  0  0  0
 40 71  1  0  0  0
 41 42  1  0  0  0
 41 72  1  0  0  0
 41 73  1  0  0  0
 42 43  1  0  0  0
 42 74  1  0  0  0
 42 75  1  0  0  0
 43 44  1  0  0  0
 43 76  1  0  0  0
 43 77  1  0  0  0
 44 78  1  0  0  0
 44 79  1  0  0  0
M  CHG  1  43   1
M  END
> <s_pdb_PDB_format_version>
3.0

> <b_ppw_prepared>
1

> <s_ppw_prepared_with_version>
2021-1

> <s_ppw_het_states>
eJztllGOwjAMRK9S9RutajulZa+CuAHav/1C3H3t4BfKCdii7Md6xk0n0ySMchtl/B7O/ieHYbochrNmtawl65z1mHXJumY9ZZUJgKIgKWgKooKqICvoCsKCsqKszSvKirKirCgryoqyoqwoG8qGsrVlQNlQNpQNZUPZUDaUC8oF5YJycWWpoCoHik3wx1o/+zAcc4BDAftj3vNacrDXObvz8z2HSw7w1prQW6cc4K3YLsn9C6xgYfIYUCDRbQ4dCGYqwE4dj6FqHR+VrDwJgJcAipkAioMAsdPClhfsxLbrlpT2TliZc9JK2gI6UOwEMYzWLt4CxPlQDorhLUCcE20EgegaRgPE4dFG+NLoWtkSvEXXcB1dWzakNAfeNYwGMIzG9xccBHgeMmPdnE1f6xyrcxsX//U7O8bM47olJi+sbNkMm32+8agPtix2Pww/v9fr43890XvLlXbIdp0rU8+Vniv7zRVPkk2ueMrsP1f6faXnSs+VN+dKv6/801zp95WeKzvOlQ+8r3xGrvT7Ss+VN+SKeAiQKo4XyVAB10xppGzI/CCnSVuiPNhrolzuf0apd8s=

$$$$
