@<TRIPOS>MOLECULE
MOL
   79    84     1     0     0
SMALL
bcc


@<TRIPOS>ATOM
      1 C1          34.0130    35.4420    34.0650 ca         1 MOL      -0.215900
      2 C2          32.8960    36.2850    34.0200 ca         1 MOL      -0.045000
      3 C3          32.3620    36.7010    32.8070 ca         1 MOL      -0.138000
      4 C4          32.9470    36.2830    31.6180 ca         1 MOL      -0.128300
      5 C5          34.0680    35.4580    31.6250 ca         1 MOL       0.294300
      6 C6          34.6230    35.0350    32.8600 ca         1 MOL       0.313300
      7 N1          34.5790    35.0750    30.4290 nb         1 MOL      -0.598000
      8 N2          35.7290    34.2420    32.8660 nb         1 MOL      -0.673000
      9 C7          35.6800    34.2870    30.4570 ca         1 MOL       0.307300
     10 C8          36.2720    33.8810    31.6750 ca         1 MOL       0.322300
     11 C9          36.2460    33.8790    29.2510 ca         1 MOL      -0.161300
     12 C10         37.3960    33.0940    29.2340 ca         1 MOL      -0.110000
     13 C11         37.9910    32.7090    30.4300 ca         1 MOL      -0.098000
     14 C12         37.4340    33.0930    31.6520 ca         1 MOL      -0.136600
     15 C13         38.1200    32.6670    32.9450 c3         1 MOL      -0.043800
     16 C14         34.4410    34.9860    35.4320 c          1 MOL       0.697700
     17 O1          33.9170    35.3830    36.4490 o          1 MOL      -0.680100
     18 N3          35.3870    34.0490    35.5430 ns         1 MOL      -0.547900
     19 C15         35.8030    33.4270    36.8020 c3         1 MOL       0.081000
     20 C16         34.6670    32.5580    37.3800 c3         1 MOL       0.147800
     21 N4          34.1210    31.5210    36.4110 n7         1 MOL      -0.829200
     22 C17         33.1950    30.5360    37.0960 c3         1 MOL       0.170800
     23 N5          29.2330    27.3170    35.7670 ns         1 MOL      -0.570900
     24 C18         30.0310    26.6120    34.9590 c          1 MOL       0.695700
     25 O2          31.0530    26.1580    35.4450 o          1 MOL      -0.643100
     26 C19         29.7000    26.5100    33.4940 ca         1 MOL      -0.217900
     27 C20         30.6280    25.8330    32.6920 ca         1 MOL      -0.028000
     28 C21         30.4880    25.7910    31.3110 ca         1 MOL      -0.138000
     29 C22         29.4160    26.4350    30.7080 ca         1 MOL      -0.119300
     30 C23         28.4660    27.1040    31.4710 ca         1 MOL       0.298300
     31 N6          27.4670    27.7430    30.8130 nb         1 MOL      -0.589000
     32 C24         26.5300    28.3600    31.5710 ca         1 MOL       0.307300
     33 C25         26.5890    28.3420    32.9820 ca         1 MOL       0.330300
     34 N7          27.6250    27.7430    33.6280 nb         1 MOL      -0.696000
     35 C26         28.5790    27.1190    32.8860 ca         1 MOL       0.324300
     36 C27         25.5630    28.9480    33.7250 ca         1 MOL      -0.146600
     37 C28         24.5030    29.5760    33.0660 ca         1 MOL      -0.088000
     38 C29         24.4600    29.6120    31.6750 ca         1 MOL      -0.116000
     39 C30         25.4730    29.0070    30.9350 ca         1 MOL      -0.150300
     40 C31         25.5780    28.9140    35.2500 c3         1 MOL      -0.039800
     41 C32         29.4920    27.6610    37.1710 c3         1 MOL       0.073000
     42 C33         30.5520    28.7780    37.2610 c3         1 MOL       0.074800
     43 N8          31.9430    28.2810    36.9090 ny         1 MOL      -0.756000
     44 C34         32.8050    29.3280    36.2180 c3         1 MOL       0.043800
     45 H1          32.4360    36.6220    34.9370 ha         1 MOL       0.158000
     46 H2          31.4960    37.3460    32.7910 ha         1 MOL       0.159000
     47 H3          32.5320    36.5980    30.6720 ha         1 MOL       0.169000
     48 H4          35.7930    34.1720    28.3150 ha         1 MOL       0.166000
     49 H5          37.8250    32.7850    28.2920 ha         1 MOL       0.155000
     50 H6          38.8890    32.1090    30.4180 ha         1 MOL       0.151000
     51 H7          38.9980    32.0650    32.7100 hc         1 MOL       0.047033
     52 H8          38.4260    33.5520    33.5030 hc         1 MOL       0.047033
     53 H9          37.4280    32.0790    33.5470 hc         1 MOL       0.047033
     54 H10         35.8720    33.7210    34.7200 hn         1 MOL       0.334500
     55 H11         36.0680    34.2030    37.5200 h1         1 MOL       0.068200
     56 H12         36.6820    32.8060    36.6270 h1         1 MOL       0.068200
     57 H13         33.8540    33.2020    37.7150 h1         1 MOL       0.054200
     58 H14         35.0180    32.0590    38.2830 h1         1 MOL       0.054200
     59 H15         33.6020    31.9840    35.6790 hn         1 MOL       0.391800
     60 H16         32.2920    31.0540    37.4200 h1         1 MOL       0.074200
     61 H17         33.6620    30.1800    38.0140 h1         1 MOL       0.074200
     62 H18         28.3520    27.6710    35.4230 hn         1 MOL       0.340500
     63 H19         31.4700    25.3320    33.1460 ha         1 MOL       0.161000
     64 H20         31.2110    25.2590    30.7110 ha         1 MOL       0.162000
     65 H21         29.3120    26.4200    29.6330 ha         1 MOL       0.172000
     66 H22         23.7100    30.0380    33.6360 ha         1 MOL       0.148000
     67 H23         23.6430    30.1080    31.1730 ha         1 MOL       0.156000
     68 H24         25.4330    29.0430    29.8560 ha         1 MOL       0.169000
     69 H25         24.7010    29.4360    35.6340 hc         1 MOL       0.039700
     70 H26         25.5620    27.8790    35.5910 hc         1 MOL       0.039700
     71 H27         26.4810    29.4030    35.6160 hc         1 MOL       0.039700
     72 H28         29.8490    26.7780    37.7010 h1         1 MOL       0.091700
     73 H29         28.5670    28.0000    37.6380 h1         1 MOL       0.091700
     74 H30         30.5590    29.1910    38.2700 hx         1 MOL       0.120700
     75 H31         30.2780    29.5930    36.5910 hx         1 MOL       0.120700
     76 H32         31.8680    27.4650    36.3180 hn         1 MOL       0.465300
     77 H33         32.4080    27.9640    37.7480 hn         1 MOL       0.465300
     78 H34         33.7090    28.8550    35.8340 hx         1 MOL       0.109200
     79 H35         32.2930    29.6830    35.3230 hx         1 MOL       0.109200
@<TRIPOS>BOND
     1     1     2 ar  
     2     1     6 ar  
     3     1    16 1   
     4     2     3 ar  
     5     2    45 1   
     6     3     4 ar  
     7     3    46 1   
     8     4     5 ar  
     9     4    47 1   
    10     5     6 ar  
    11     5     7 ar  
    12     6     8 ar  
    13     7     9 ar  
    14     8    10 ar  
    15     9    10 ar  
    16     9    11 ar  
    17    10    14 ar  
    18    11    12 ar  
    19    11    48 1   
    20    12    13 ar  
    21    12    49 1   
    22    13    14 ar  
    23    13    50 1   
    24    14    15 1   
    25    15    51 1   
    26    15    52 1   
    27    15    53 1   
    28    16    17 2   
    29    16    18 1   
    30    18    19 1   
    31    18    54 1   
    32    19    20 1   
    33    19    55 1   
    34    19    56 1   
    35    20    21 1   
    36    20    57 1   
    37    20    58 1   
    38    21    22 1   
    39    21    59 1   
    40    22    44 1   
    41    22    60 1   
    42    22    61 1   
    43    23    24 1   
    44    23    41 1   
    45    23    62 1   
    46    24    25 2   
    47    24    26 1   
    48    26    27 ar  
    49    26    35 ar  
    50    27    28 ar  
    51    27    63 1   
    52    28    29 ar  
    53    28    64 1   
    54    29    30 ar  
    55    29    65 1   
    56    30    31 ar  
    57    30    35 ar  
    58    31    32 ar  
    59    32    33 ar  
    60    32    39 ar  
    61    33    34 ar  
    62    33    36 ar  
    63    34    35 ar  
    64    36    37 ar  
    65    36    40 1   
    66    37    38 ar  
    67    37    66 1   
    68    38    39 ar  
    69    38    67 1   
    70    39    68 1   
    71    40    69 1   
    72    40    70 1   
    73    40    71 1   
    74    41    42 1   
    75    41    72 1   
    76    41    73 1   
    77    42    43 1   
    78    42    74 1   
    79    42    75 1   
    80    43    44 1   
    81    43    76 1   
    82    43    77 1   
    83    44    78 1   
    84    44    79 1   
@<TRIPOS>SUBSTRUCTURE
     1 MOL         1 TEMP              0 ****  ****    0 ROOT
