
                    3D
 Schrodinger Suite 2021-1.
 59 60  0  0  1  0            999 V2000
   12.3260   18.0910   18.8110 C   0  0  0  0  0  0
   13.5280   18.1040   19.3760 N   0  3  0  0  0  0
   11.2910   18.2950   19.7170 N   0  0  0  0  0  0
   12.1380   18.5520   17.6050 N   0  0  0  0  0  0
   12.3610   18.2010   16.2530 C   0  0  0  0  0  0
   10.9570   18.4500   15.6430 C   0  0  0  0  0  0
   10.0750   17.7160   16.1420 O   0  0  0  0  0  0
   10.7590   19.4130   14.7780 N   0  0  0  0  0  0
    9.4890   19.7060   14.1740 C   0  0  0  0  0  0
    9.3110   20.4980   13.1310 C   0  0  0  0  0  0
    7.9310   20.4730   12.7840 C   0  0  0  0  0  0
    7.3490   19.6780   13.6760 N   0  0  0  0  0  0
    5.9610   19.1920   13.9120 C   0  0  0  0  0  0
    8.3110   19.1560   14.5420 C   0  0  0  0  0  0
    7.3690   21.3130   11.7010 C   0  0  0  0  0  0
    6.2870   21.9090   11.6360 O   0  0  0  0  0  0
    8.2010   21.6030   10.6850 N   0  0  0  0  0  0
    7.8730   22.5490    9.6420 C   0  0  0  0  0  0
    8.8630   22.9810    8.7170 C   0  0  0  0  0  0
    8.3140   23.9440    7.9170 C   0  0  0  0  0  0
    6.9880   24.0820    8.3890 N   0  0  0  0  0  0
    6.0390   25.0160    7.8050 C   0  0  0  0  0  0
    6.7580   23.2870    9.4450 C   0  0  0  0  0  0
    8.6900   24.7230    6.7820 C   0  0  0  0  0  0
    8.0860   25.7220    6.3490 O   0  0  0  0  0  0
    9.7770   24.2990    6.0740 N   0  0  0  0  0  0
   10.0700   25.1750    4.8540 C   0  0  0  0  0  0
   10.8400   24.4620    3.7850 C   0  0  0  0  0  0
   11.5440   25.4400    2.8470 C   0  0  0  0  0  0
   11.1400   26.7210    2.8530 N   0  3  0  0  0  0
   12.3630   24.9670    1.9610 N   0  0  0  0  0  0
   14.3533   17.9656   18.8105 H   0  0  0  0  0  0
   13.6167   18.2523   20.3711 H   0  0  0  0  0  0
   10.3334   18.3046   19.3960 H   0  0  0  0  0  0
   11.4968   18.4336   20.6960 H   0  0  0  0  0  0
   11.6942   19.4493   17.4708 H   0  0  0  0  0  0
   12.5929   17.1376   16.1935 H   0  0  0  0  0  0
   13.0707   18.9023   15.8142 H   0  0  0  0  0  0
   11.5274   20.0052   14.4969 H   0  0  0  0  0  0
   10.1516   21.0233   12.7021 H   0  0  0  0  0  0
    5.9477   18.5387   14.7844 H   0  0  0  0  0  0
    5.3022   20.0428   14.0858 H   0  0  0  0  0  0
    5.6159   18.6384   13.0388 H   0  0  0  0  0  0
    8.2741   18.4609   15.3678 H   0  0  0  0  0  0
    9.1027   21.1517   10.6261 H   0  0  0  0  0  0
    9.8509   22.5451    8.7405 H   0  0  0  0  0  0
    5.0873   24.9448    8.3317 H   0  0  0  0  0  0
    6.4268   26.0309    7.8921 H   0  0  0  0  0  0
    5.8904   24.7735    6.7528 H   0  0  0  0  0  0
    5.9047   23.1603   10.0948 H   0  0  0  0  0  0
   10.2910   23.4843    6.3776 H   0  0  0  0  0  0
   10.6225   26.0604    5.1685 H   0  0  0  0  0  0
    9.1317   25.5436    4.4394 H   0  0  0  0  0  0
   10.1624   23.8314    3.2094 H   0  0  0  0  0  0
   11.5786   23.8063    4.2461 H   0  0  0  0  0  0
   11.5846   27.3936    2.2447 H   0  0  0  0  0  0
   10.3916   27.0116    3.4658 H   0  0  0  0  0  0
   12.8407   25.5938    1.3293 H   0  0  0  0  0  0
   12.5236   23.9716    1.9022 H   0  0  0  0  0  0
  1  2  2  0  0  0
  1  3  1  0  0  0
  1  4  1  0  0  0
  2 32  1  0  0  0
  2 33  1  0  0  0
  3 34  1  0  0  0
  3 35  1  0  0  0
  4  5  1  0  0  0
  4 36  1  0  0  0
  5  6  1  0  0  0
  5 37  1  0  0  0
  5 38  1  0  0  0
  6  7  2  0  0  0
  6  8  1  0  0  0
  8  9  1  0  0  0
  8 39  1  0  0  0
  9 10  1  0  0  0
  9 14  2  0  0  0
 10 11  2  0  0  0
 10 40  1  0  0  0
 11 12  1  0  0  0
 11 15  1  0  0  0
 12 13  1  0  0  0
 12 14  1  0  0  0
 13 41  1  0  0  0
 13 42  1  0  0  0
 13 43  1  0  0  0
 14 44  1  0  0  0
 15 16  2  0  0  0
 15 17  1  0  0  0
 17 18  1  0  0  0
 17 45  1  0  0  0
 18 19  1  0  0  0
 18 23  2  0  0  0
 19 20  2  0  0  0
 19 46  1  0  0  0
 20 21  1  0  0  0
 20 24  1  0  0  0
 21 22  1  0  0  0
 21 23  1  0  0  0
 22 47  1  0  0  0
 22 48  1  0  0  0
 22 49  1  0  0  0
 23 50  1  0  0  0
 24 25  2  0  0  0
 24 26  1  0  0  0
 26 27  1  0  0  0
 26 51  1  0  0  0
 27 28  1  0  0  0
 27 52  1  0  0  0
 27 53  1  0  0  0
 28 29  1  0  0  0
 28 54  1  0  0  0
 28 55  1  0  0  0
 29 30  2  0  0  0
 29 31  1  0  0  0
 30 56  1  0  0  0
 30 57  1  0  0  0
 31 58  1  0  0  0
 31 59  1  0  0  0
M  CHG  2   2   1  30   1
M  END
> <s_pdb_PDB_format_version>
3.0

> <b_ppw_prepared>
1

> <s_ppw_prepared_with_version>
2021-1

> <s_ppw_het_states>
eJxNkksOwjAQQ68SZR1Qxkl/XKXqDRA7Voi7Mw7jqiywPYQXM/STLT/S7i8rqR4l7SjJqC1yD51C59AldA3dQq3KiGiQEdMENVFNWBPXBDaRITLOriJDZIgMkSEyRIbIELlV/ehBpuM+nI7RoKQWB9z2sK5TWNc5rOsSX3O7xtR1C0utF991CYem4Mb0T4ygq8a0XYP6jCOzAAyLPqFRlWG2S+DuoEVzx9CyuWc7g+7hFLgG1eER7h1n0FZooDo0UB0aqA5NOxswjAaebvXu809uqz+u7mv1Brl3Jb8sT9UTD35Ler2fz//7cXx/mK6aLA==

$$$$
