@<TRIPOS>MOLECULE
MOL
   59    60     1     0     0
SMALL
bcc


@<TRIPOS>ATOM
      1 C1          12.3260    18.0910    18.8110 cz         1 MOL       0.525300
      2 N1          13.5280    18.1040    19.3760 nv         1 MOL      -0.502600
      3 N2          11.2910    18.2950    19.7170 nv         1 MOL      -0.486700
      4 N3          12.1380    18.5520    17.6050 nu         1 MOL      -0.379200
      5 C2          12.3610    18.2010    16.2530 c3         1 MOL      -0.053700
      6 C3          10.9570    18.4500    15.6430 c          1 MOL       0.625100
      7 O1          10.0750    17.7160    16.1420 o          1 MOL      -0.638100
      8 N4          10.7590    19.4130    14.7780 ns         1 MOL      -0.390100
      9 C4           9.4890    19.7060    14.1740 cc         1 MOL      -0.081400
     10 C5           9.3110    20.4980    13.1310 cc         1 MOL      -0.167000
     11 C6           7.9310    20.4730    12.7840 cd         1 MOL      -0.168900
     12 N5           7.3490    19.6780    13.6760 na         1 MOL       0.002900
     13 C7           5.9610    19.1920    13.9120 c3         1 MOL       0.009600
     14 C8           8.3110    19.1560    14.5420 cd         1 MOL      -0.112300
     15 C9           7.3690    21.3130    11.7010 c          1 MOL       0.708700
     16 O2           6.2870    21.9090    11.6360 o          1 MOL      -0.604100
     17 N6           8.2010    21.6030    10.6850 ns         1 MOL      -0.435100
     18 C10          7.8730    22.5490     9.6420 cc         1 MOL      -0.031400
     19 C11          8.8630    22.9810     8.7170 cc         1 MOL      -0.161000
     20 C12          8.3140    23.9440     7.9170 cd         1 MOL      -0.214900
     21 N7           6.9880    24.0820     8.3890 na         1 MOL       0.004900
     22 C13          6.0390    25.0160     7.8050 c3         1 MOL       0.013600
     23 C14          6.7580    23.2870     9.4450 cd         1 MOL      -0.106300
     24 C15          8.6900    24.7230     6.7820 c          1 MOL       0.733700
     25 O3           8.0860    25.7220     6.3490 o          1 MOL      -0.690100
     26 N8           9.7770    24.2990     6.0740 ns         1 MOL      -0.573900
     27 C16         10.0700    25.1750     4.8540 c3         1 MOL       0.110000
     28 C17         10.8400    24.4620     3.7850 c3         1 MOL      -0.193700
     29 C18         11.5440    25.4400     2.8470 c2         1 MOL       0.448800
     30 N9          11.1400    26.7210     2.8530 nv         1 MOL      -0.467100
     31 N10         12.3630    24.9670     1.9610 nv         1 MOL      -0.451200
     32 H1          14.3530    17.9660    18.8110 hn         1 MOL       0.330700
     33 H2          13.6170    18.2520    20.3710 hn         1 MOL       0.330700
     34 H3          10.3330    18.3050    19.3960 hn         1 MOL       0.330700
     35 H4          11.4970    18.4340    20.6960 hn         1 MOL       0.330700
     36 H5          11.6940    19.4490    17.4710 hn         1 MOL       0.321700
     37 H6          12.5930    17.1380    16.1940 h1         1 MOL       0.105200
     38 H7          13.0710    18.9020    15.8140 h1         1 MOL       0.105200
     39 H8          11.5270    20.0050    14.4970 hn         1 MOL       0.333500
     40 H9          10.1520    21.0230    12.7020 ha         1 MOL       0.155000
     41 H10          5.9480    18.5390    14.7840 h1         1 MOL       0.077367
     42 H11          5.3020    20.0430    14.0860 h1         1 MOL       0.077367
     43 H12          5.6160    18.6380    13.0390 h1         1 MOL       0.077367
     44 H13          8.2740    18.4610    15.3680 h4         1 MOL       0.206000
     45 H14          9.1030    21.1520    10.6260 hn         1 MOL       0.326500
     46 H15          9.8510    22.5450     8.7410 ha         1 MOL       0.150000
     47 H16          5.0870    24.9450     8.3320 h1         1 MOL       0.071700
     48 H17          6.4270    26.0310     7.8920 h1         1 MOL       0.071700
     49 H18          5.8900    24.7730     6.7530 h1         1 MOL       0.071700
     50 H19          5.9050    23.1600    10.0950 h4         1 MOL       0.219000
     51 H20         10.2910    23.4840     6.3780 hn         1 MOL       0.336500
     52 H21         10.6230    26.0600     5.1680 h1         1 MOL       0.073200
     53 H22          9.1320    25.5440     4.4390 h1         1 MOL       0.073200
     54 H23         10.1620    23.8310     3.2090 hc         1 MOL       0.109200
     55 H24         11.5790    23.8060     4.2460 hc         1 MOL       0.109200
     56 H25         11.5850    27.3940     2.2450 hn         1 MOL       0.333450
     57 H26         10.3920    27.0120     3.4660 hn         1 MOL       0.333450
     58 H27         12.8410    25.5940     1.3290 hn         1 MOL       0.333450
     59 H28         12.5240    23.9720     1.9020 hn         1 MOL       0.333450
@<TRIPOS>BOND
     1     1     2 2   
     2     1     3 1   
     3     1     4 1   
     4     2    32 1   
     5     2    33 1   
     6     3    34 1   
     7     3    35 1   
     8     4     5 1   
     9     4    36 1   
    10     5     6 1   
    11     5    37 1   
    12     5    38 1   
    13     6     7 2   
    14     6     8 1   
    15     8     9 1   
    16     8    39 1   
    17     9    10 1   
    18     9    14 2   
    19    10    11 2   
    20    10    40 1   
    21    11    12 1   
    22    11    15 1   
    23    12    13 1   
    24    12    14 1   
    25    13    41 1   
    26    13    42 1   
    27    13    43 1   
    28    14    44 1   
    29    15    16 2   
    30    15    17 1   
    31    17    18 1   
    32    17    45 1   
    33    18    19 1   
    34    18    23 2   
    35    19    20 2   
    36    19    46 1   
    37    20    21 1   
    38    20    24 1   
    39    21    22 1   
    40    21    23 1   
    41    22    47 1   
    42    22    48 1   
    43    22    49 1   
    44    23    50 1   
    45    24    25 2   
    46    24    26 1   
    47    26    27 1   
    48    26    51 1   
    49    27    28 1   
    50    27    52 1   
    51    27    53 1   
    52    28    29 1   
    53    28    54 1   
    54    28    55 1   
    55    29    30 2   
    56    29    31 1   
    57    30    56 1   
    58    30    57 1   
    59    31    58 1   
    60    31    59 1   
@<TRIPOS>SUBSTRUCTURE
     1 MOL         1 TEMP              0 ****  ****    0 ROOT
