@<TRIPOS>MOLECULE
MOL
   44    43     1     0     0
SMALL
bcc


@<TRIPOS>ATOM
      1 N1          30.3590    23.7140     3.0920 nz         1 MOL      -0.837600
      2 C1          28.9960    24.1790     3.1870 c3         1 MOL       0.105800
      3 C2          28.1350    23.4280     2.1980 c3         1 MOL      -0.138400
      4 C3          26.6720    23.8160     2.2220 c3         1 MOL       0.108800
      5 N2          25.7360    22.7340     1.7260 ny         1 MOL      -0.764000
      6 C4          24.5520    22.4670     2.6290 c3         1 MOL       0.107800
      7 C5          23.2490    23.1470     2.2570 c3         1 MOL      -0.106400
      8 C6          23.3120    24.0900     1.0810 c3         1 MOL      -0.106400
      9 C7          23.9810    25.4520     1.3900 c3         1 MOL       0.107800
     10 N3          24.0610    25.6840     2.9430 ny         1 MOL      -0.764000
     11 C8          24.2430    27.1690     3.2680 c3         1 MOL       0.108800
     12 C9          23.9820    28.0600     2.0590 c3         1 MOL      -0.138400
     13 C10         25.2470    28.4710     1.2790 c3         1 MOL       0.105800
     14 N4          25.0510    29.8550     0.8330 nz         1 MOL      -0.837600
     15 H1          30.9340    24.2170     3.7530 hn         1 MOL       0.485467
     16 H2          30.3930    22.7260     3.2990 hn         1 MOL       0.485467
     17 H3          30.7050    23.8730     2.1570 hn         1 MOL       0.485467
     18 H4          28.9600    25.2450     2.9640 hx         1 MOL       0.131700
     19 H5          28.6230    24.0070     4.1970 hx         1 MOL       0.131700
     20 H6          28.2280    22.3570     2.3790 hc         1 MOL       0.098700
     21 H7          28.5300    23.5720     1.1920 hc         1 MOL       0.098700
     22 H8          26.5280    24.7190     1.6280 hx         1 MOL       0.127700
     23 H9          26.3900    24.1010     3.2360 hx         1 MOL       0.127700
     24 H10         26.2550    21.8780     1.5930 hn         1 MOL       0.464800
     25 H11         25.4050    22.9750     0.8030 hn         1 MOL       0.464800
     26 H12         24.8150    22.7310     3.6530 hx         1 MOL       0.122700
     27 H13         24.3890    21.3920     2.6980 hx         1 MOL       0.122700
     28 H14         22.8610    23.6800     3.1250 hc         1 MOL       0.087700
     29 H15         22.4880    22.3890     2.0700 hc         1 MOL       0.087700
     30 H16         22.3050    24.2600     0.7000 hc         1 MOL       0.087700
     31 H17         23.8400    23.6070     0.2590 hc         1 MOL       0.087700
     32 H18         23.4010    26.2530     0.9330 hx         1 MOL       0.122700
     33 H19         24.9860    25.4670     0.9690 hx         1 MOL       0.122700
     34 H20         24.8370    25.1590     3.3220 hn         1 MOL       0.464800
     35 H21         23.2140    25.3460     3.3770 hn         1 MOL       0.464800
     36 H22         25.2560    27.3390     3.6310 hx         1 MOL       0.127700
     37 H23         23.5680    27.4480     4.0770 hx         1 MOL       0.127700
     38 H24         23.4480    28.9550     2.3790 hc         1 MOL       0.098700
     39 H25         23.2890    27.5580     1.3840 hc         1 MOL       0.098700
     40 H26         25.3640    27.8230     0.4100 hx         1 MOL       0.131700
     41 H27         26.1120    28.4220     1.9400 hx         1 MOL       0.131700
     42 H28         25.8630    30.1610     0.3160 hn         1 MOL       0.485467
     43 H29         24.2360    29.9060     0.2390 hn         1 MOL       0.485467
     44 H30         24.9190    30.4530     1.6370 hn         1 MOL       0.485467
@<TRIPOS>BOND
     1     1     2 1   
     2     1    15 1   
     3     1    16 1   
     4     1    17 1   
     5     2     3 1   
     6     2    18 1   
     7     2    19 1   
     8     3     4 1   
     9     3    20 1   
    10     3    21 1   
    11     4     5 1   
    12     4    22 1   
    13     4    23 1   
    14     5     6 1   
    15     5    24 1   
    16     5    25 1   
    17     6     7 1   
    18     6    26 1   
    19     6    27 1   
    20     7     8 1   
    21     7    28 1   
    22     7    29 1   
    23     8     9 1   
    24     8    30 1   
    25     8    31 1   
    26     9    10 1   
    27     9    32 1   
    28     9    33 1   
    29    10    11 1   
    30    10    34 1   
    31    10    35 1   
    32    11    12 1   
    33    11    36 1   
    34    11    37 1   
    35    12    13 1   
    36    12    38 1   
    37    12    39 1   
    38    13    14 1   
    39    13    40 1   
    40    13    41 1   
    41    14    42 1   
    42    14    43 1   
    43    14    44 1   
@<TRIPOS>SUBSTRUCTURE
     1 MOL         1 TEMP              0 ****  ****    0 ROOT
