
                    3D
 Schrodinger Suite 2021-1.
 44 43  0  0  1  0            999 V2000
   30.3590   23.7140    3.0920 N   0  3  0  0  0  0
   28.9960   24.1790    3.1870 C   0  0  0  0  0  0
   28.1350   23.4280    2.1980 C   0  0  0  0  0  0
   26.6720   23.8160    2.2220 C   0  0  0  0  0  0
   25.7360   22.7340    1.7260 N   0  3  0  0  0  0
   24.5520   22.4670    2.6290 C   0  0  0  0  0  0
   23.2490   23.1470    2.2570 C   0  0  0  0  0  0
   23.3120   24.0900    1.0810 C   0  0  0  0  0  0
   23.9810   25.4520    1.3900 C   0  0  0  0  0  0
   24.0610   25.6840    2.9430 N   0  3  0  0  0  0
   24.2430   27.1690    3.2680 C   0  0  0  0  0  0
   23.9820   28.0600    2.0590 C   0  0  0  0  0  0
   25.2470   28.4710    1.2790 C   0  0  0  0  0  0
   25.0510   29.8550    0.8330 N   0  3  0  0  0  0
   30.9336   24.2166    3.7534 H   0  0  0  0  0  0
   30.3934   22.7261    3.2994 H   0  0  0  0  0  0
   30.7052   23.8735    2.1567 H   0  0  0  0  0  0
   28.9597   25.2453    2.9637 H   0  0  0  0  0  0
   28.6233   24.0071    4.1968 H   0  0  0  0  0  0
   28.2276   22.3571    2.3789 H   0  0  0  0  0  0
   28.5304   23.5722    1.1925 H   0  0  0  0  0  0
   26.5278   24.7186    1.6281 H   0  0  0  0  0  0
   26.3903   24.1006    3.2358 H   0  0  0  0  0  0
   26.2550   21.8778    1.5930 H   0  0  0  0  0  0
   25.4049   22.9754    0.8029 H   0  0  0  0  0  0
   24.8150   22.7310    3.6533 H   0  0  0  0  0  0
   24.3887   21.3915    2.6982 H   0  0  0  0  0  0
   22.8607   23.6798    3.1250 H   0  0  0  0  0  0
   22.4883   22.3891    2.0700 H   0  0  0  0  0  0
   22.3049   24.2604    0.7004 H   0  0  0  0  0  0
   23.8395   23.6069    0.2586 H   0  0  0  0  0  0
   23.4008   26.2535    0.9326 H   0  0  0  0  0  0
   24.9861   25.4667    0.9685 H   0  0  0  0  0  0
   24.8365   25.1594    3.3218 H   0  0  0  0  0  0
   23.2142   25.3460    3.3775 H   0  0  0  0  0  0
   25.2565   27.3389    3.6315 H   0  0  0  0  0  0
   23.5677   27.4485    4.0767 H   0  0  0  0  0  0
   23.4485   28.9551    2.3788 H   0  0  0  0  0  0
   23.2888   27.5583    1.3838 H   0  0  0  0  0  0
   25.3638   27.8231    0.4102 H   0  0  0  0  0  0
   26.1124   28.4221    1.9399 H   0  0  0  0  0  0
   25.8629   30.1608    0.3159 H   0  0  0  0  0  0
   24.2356   29.9056    0.2392 H   0  0  0  0  0  0
   24.9194   30.4527    1.6365 H   0  0  0  0  0  0
  1  2  1  0  0  0
  1 15  1  0  0  0
  1 16  1  0  0  0
  1 17  1  0  0  0
  2  3  1  0  0  0
  2 18  1  0  0  0
  2 19  1  0  0  0
  3  4  1  0  0  0
  3 20  1  0  0  0
  3 21  1  0  0  0
  4  5  1  0  0  0
  4 22  1  0  0  0
  4 23  1  0  0  0
  5  6  1  0  0  0
  5 24  1  0  0  0
  5 25  1  0  0  0
  6  7  1  0  0  0
  6 26  1  0  0  0
  6 27  1  0  0  0
  7  8  1  0  0  0
  7 28  1  0  0  0
  7 29  1  0  0  0
  8  9  1  0  0  0
  8 30  1  0  0  0
  8 31  1  0  0  0
  9 10  1  0  0  0
  9 32  1  0  0  0
  9 33  1  0  0  0
 10 11  1  0  0  0
 10 34  1  0  0  0
 10 35  1  0  0  0
 11 12  1  0  0  0
 11 36  1  0  0  0
 11 37  1  0  0  0
 12 13  1  0  0  0
 12 38  1  0  0  0
 12 39  1  0  0  0
 13 14  1  0  0  0
 13 40  1  0  0  0
 13 41  1  0  0  0
 14 42  1  0  0  0
 14 43  1  0  0  0
 14 44  1  0  0  0
M  CHG  4   1   1   5   1  10   1  14   1
M  END
> <s_pdb_PDB_format_version>
3.0

> <b_ppw_prepared>
1

> <s_ppw_prepared_with_version>
2021-1

> <s_ppw_het_states>
eJztkDsOhDAMRK9iUUerDGTD5yooN0DbbYW4O3YYAweghIL3ApFn5LVBM8msD4KgBJnbINHYkYn88n/muScHciQReRHwLz4SPhPJ7phZbHsld1Rloio9WpmvFj1VOVCVI9V4NjHBrRY8soqHVvFm8ZNz1NHrFuT3X5bjXSu/q3pX9eyqyrYDSPLCyg==

$$$$
