@<TRIPOS>MOLECULE
MOL
   63    65     1     0     0
SMALL
bcc


@<TRIPOS>ATOM
      1 C1           7.5590    16.2250    15.3070 c3         1 MOL      -0.115100
      2 C2           7.7330    17.9450    16.9890 c3         1 MOL      -0.115100
      3 C3           8.3390    17.4730    15.6880 c3         1 MOL       0.212000
      4 N1           8.0240    18.3590    14.7430 n7         1 MOL      -0.912700
      5 C4           8.8040    19.2380    14.0810 c3         1 MOL       0.516500
      6 N2          10.0980    19.4020    14.3900 nz         1 MOL      -0.905600
      7 C5           7.3210    21.5470    10.8440 ca         1 MOL      -0.074500
      8 C6           8.6670    21.1740    10.9140 ca         1 MOL      -0.102500
      9 C7           9.1600    20.4440    11.9900 ca         1 MOL      -0.100250
     10 C8           8.2580    20.0890    13.0020 ca         1 MOL      -0.189300
     11 C9           6.8850    20.4570    12.9250 ca         1 MOL      -0.100250
     12 C10          6.4040    21.1930    11.8320 ca         1 MOL      -0.102500
     13 C11          6.9700    22.3320     9.7180 cc         1 MOL       0.290200
     14 C12          5.7920    22.8980     9.3050 cd         1 MOL      -0.206800
     15 C13          6.0830    23.6030     8.0750 cd         1 MOL      -0.206800
     16 C14          7.4260    23.4050     7.8180 cc         1 MOL       0.290200
     17 O1           8.0030    22.6120     8.8190 os         1 MOL      -0.356800
     18 C15          8.2590    23.8700     6.7300 ca         1 MOL      -0.074500
     19 C16          9.5970    23.5260     6.6880 ca         1 MOL      -0.102500
     20 C17         10.4030    23.9390     5.6350 ca         1 MOL      -0.100250
     21 C18          9.8250    24.7040     4.6410 ca         1 MOL      -0.189300
     22 C19          8.4750    25.0720     4.6650 ca         1 MOL      -0.100250
     23 C20          7.6930    24.6570     5.7120 ca         1 MOL      -0.102500
     24 C21         10.5890    25.1230     3.4640 c3         1 MOL       0.516500
     25 N3          11.6570    24.4280     3.0210 nz         1 MOL      -0.905600
     26 N4          10.1230    26.2580     2.9310 n7         1 MOL      -0.912700
     27 C22         10.4500    26.8590     1.8140 c3         1 MOL       0.212000
     28 C23         11.9040    27.3000     1.8860 c3         1 MOL      -0.115100
     29 C24          9.4180    27.9860     1.7020 c3         1 MOL      -0.115100
     30 H1           7.9460    15.8260    14.3690 hc         1 MOL       0.057200
     31 H2           7.6660    15.4760    16.0910 hc         1 MOL       0.057200
     32 H3           6.5050    16.4770    15.1870 hc         1 MOL       0.057200
     33 H4           8.2480    18.8450    17.3250 hc         1 MOL       0.057200
     34 H5           6.6760    18.1660    16.8390 hc         1 MOL       0.057200
     35 H6           7.8370    17.1650    17.7430 hc         1 MOL       0.057200
     36 H7           9.4120    17.2960    15.7610 h1         1 MOL       0.052700
     37 H8           7.6360    17.8770    13.9450 hn         1 MOL       0.450800
     38 H9           9.0660    18.4700    13.3540 hx         1 MOL       0.105200
     39 H10         10.5040    20.1000    13.7830 hn         1 MOL       0.444467
     40 H11         10.1800    19.7030    15.3510 hn         1 MOL       0.444467
     41 H12         10.5870    18.5270    14.2690 hn         1 MOL       0.444467
     42 H13          9.3470    21.4530    10.1220 ha         1 MOL       0.163750
     43 H14         10.2040    20.1710    12.0240 ha         1 MOL       0.146500
     44 H15          6.2040    20.1690    13.7120 ha         1 MOL       0.146500
     45 H16          5.3690    21.4850    11.7380 ha         1 MOL       0.163750
     46 H17          4.8930    22.7600     9.8880 ha         1 MOL       0.180000
     47 H18          5.2990    24.1410     7.5620 ha         1 MOL       0.180000
     48 H19         10.0260    22.9300     7.4790 ha         1 MOL       0.163750
     49 H20         11.4460    23.6610     5.6120 ha         1 MOL       0.146500
     50 H21          8.0650    25.6730     3.8670 ha         1 MOL       0.146500
     51 H22          6.6490    24.9300     5.7580 ha         1 MOL       0.163750
     52 H23          9.9310    24.5400     2.8190 hx         1 MOL       0.105200
     53 H24         12.0390    24.8820     2.2030 hn         1 MOL       0.444467
     54 H25         12.3600    24.3930     3.7450 hn         1 MOL       0.444467
     55 H26         11.3730    23.4890     2.7820 hn         1 MOL       0.444467
     56 H27          9.1300    26.1710     2.7680 hn         1 MOL       0.450800
     57 H28         10.3230    26.1680     0.9810 h1         1 MOL       0.052700
     58 H29         12.1790    27.8000     0.9580 hc         1 MOL       0.057200
     59 H30         12.0350    27.9880     2.7210 hc         1 MOL       0.057200
     60 H31         12.5420    26.4280     2.0310 hc         1 MOL       0.057200
     61 H32          9.6010    28.5580     0.7930 hc         1 MOL       0.057200
     62 H33          8.4160    27.5590     1.6660 hc         1 MOL       0.057200
     63 H34          9.5020    28.6430     2.5670 hc         1 MOL       0.057200
@<TRIPOS>BOND
     1     1     3 1   
     2     1    30 1   
     3     1    31 1   
     4     1    32 1   
     5     2     3 1   
     6     2    33 1   
     7     2    34 1   
     8     2    35 1   
     9     3     4 1   
    10     3    36 1   
    11     4     5 1   
    12     4    37 1   
    13     5     6 1   
    14     5    10 1   
    15     5    38 1   
    16     6    39 1   
    17     6    40 1   
    18     6    41 1   
    19     7     8 ar  
    20     7    12 ar  
    21     7    13 1   
    22     8     9 ar  
    23     8    42 1   
    24     9    10 ar  
    25     9    43 1   
    26    10    11 ar  
    27    11    12 ar  
    28    11    44 1   
    29    12    45 1   
    30    13    14 2   
    31    13    17 1   
    32    14    15 1   
    33    14    46 1   
    34    15    16 2   
    35    15    47 1   
    36    16    17 1   
    37    16    18 1   
    38    18    19 ar  
    39    18    23 ar  
    40    19    20 ar  
    41    19    48 1   
    42    20    21 ar  
    43    20    49 1   
    44    21    22 ar  
    45    21    24 1   
    46    22    23 ar  
    47    22    50 1   
    48    23    51 1   
    49    24    25 1   
    50    24    26 1   
    51    24    52 1   
    52    25    53 1   
    53    25    54 1   
    54    25    55 1   
    55    26    27 1   
    56    26    56 1   
    57    27    28 1   
    58    27    29 1   
    59    27    57 1   
    60    28    58 1   
    61    28    59 1   
    62    28    60 1   
    63    29    61 1   
    64    29    62 1   
    65    29    63 1   
@<TRIPOS>SUBSTRUCTURE
     1 MOL         1 TEMP              0 ****  ****    0 ROOT
