
                    3D
 Schrodinger Suite 2021-1.
 63 65  0  0  1  0            999 V2000
    7.5590   16.2250   15.3070 C   0  0  0  0  0  0
    7.7330   17.9450   16.9890 C   0  0  0  0  0  0
    8.3390   17.4730   15.6880 C   0  0  0  0  0  0
    8.0240   18.3590   14.7430 N   0  0  1  0  0  0
    8.8040   19.2380   14.0810 C   0  0  2  0  0  0
   10.0980   19.4020   14.3900 N   0  3  0  0  0  0
    7.3210   21.5470   10.8440 C   0  0  0  0  0  0
    8.6670   21.1740   10.9140 C   0  0  0  0  0  0
    9.1600   20.4440   11.9900 C   0  0  0  0  0  0
    8.2580   20.0890   13.0020 C   0  0  0  0  0  0
    6.8850   20.4570   12.9250 C   0  0  0  0  0  0
    6.4040   21.1930   11.8320 C   0  0  0  0  0  0
    6.9700   22.3320    9.7180 C   0  0  0  0  0  0
    5.7920   22.8980    9.3050 C   0  0  0  0  0  0
    6.0830   23.6030    8.0750 C   0  0  0  0  0  0
    7.4260   23.4050    7.8180 C   0  0  0  0  0  0
    8.0030   22.6120    8.8190 O   0  0  0  0  0  0
    8.2590   23.8700    6.7300 C   0  0  0  0  0  0
    9.5970   23.5260    6.6880 C   0  0  0  0  0  0
   10.4030   23.9390    5.6350 C   0  0  0  0  0  0
    9.8250   24.7040    4.6410 C   0  0  0  0  0  0
    8.4750   25.0720    4.6650 C   0  0  0  0  0  0
    7.6930   24.6570    5.7120 C   0  0  0  0  0  0
   10.5890   25.1230    3.4640 C   0  0  2  0  0  0
   11.6570   24.4280    3.0210 N   0  3  0  0  0  0
   10.1230   26.2580    2.9310 N   0  0  1  0  0  0
   10.4500   26.8590    1.8140 C   0  0  0  0  0  0
   11.9040   27.3000    1.8860 C   0  0  0  0  0  0
    9.4180   27.9860    1.7020 C   0  0  0  0  0  0
    7.9457   15.8265   14.3690 H   0  0  0  0  0  0
    7.6660   15.4755   16.0912 H   0  0  0  0  0  0
    6.5053   16.4769   15.1872 H   0  0  0  0  0  0
    8.2480   18.8451   17.3249 H   0  0  0  0  0  0
    6.6763   18.1662   16.8391 H   0  0  0  0  0  0
    7.8370   17.1648   17.7430 H   0  0  0  0  0  0
    9.4120   17.2955   15.7608 H   0  0  0  0  0  0
    7.6360   17.8770   13.9448 H   0  0  0  0  0  0
    9.0665   18.4698   13.3536 H   0  0  0  0  0  0
   10.5036   20.1003   13.7834 H   0  0  0  0  0  0
   10.1797   19.7028   15.3507 H   0  0  0  0  0  0
   10.5871   18.5266   14.2690 H   0  0  0  0  0  0
    9.3465   21.4529   10.1223 H   0  0  0  0  0  0
   10.2044   20.1710   12.0242 H   0  0  0  0  0  0
    6.2039   20.1695   13.7123 H   0  0  0  0  0  0
    5.3686   21.4854   11.7376 H   0  0  0  0  0  0
    4.8932   22.7603    9.8878 H   0  0  0  0  0  0
    5.2991   24.1406    7.5623 H   0  0  0  0  0  0
   10.0264   22.9298    7.4795 H   0  0  0  0  0  0
   11.4462   23.6606    5.6121 H   0  0  0  0  0  0
    8.0650   25.6734    3.8671 H   0  0  0  0  0  0
    6.6492   24.9305    5.7581 H   0  0  0  0  0  0
    9.9314   24.5401    2.8191 H   0  0  0  0  0  0
   12.0389   24.8816    2.2034 H   0  0  0  0  0  0
   12.3602   24.3926    3.7451 H   0  0  0  0  0  0
   11.3726   23.4887    2.7823 H   0  0  0  0  0  0
    9.1301   26.1710    2.7676 H   0  0  0  0  0  0
   10.3226   26.1679    0.9808 H   0  0  0  0  0  0
   12.1788   27.8005    0.9575 H   0  0  0  0  0  0
   12.0347   27.9878    2.7214 H   0  0  0  0  0  0
   12.5419   26.4281    2.0307 H   0  0  0  0  0  0
    9.6014   28.5583    0.7926 H   0  0  0  0  0  0
    8.4156   27.5593    1.6662 H   0  0  0  0  0  0
    9.5017   28.6434    2.5674 H   0  0  0  0  0  0
  1  3  1  0  0  0
  1 30  1  0  0  0
  1 31  1  0  0  0
  1 32  1  0  0  0
  2  3  1  0  0  0
  2 33  1  0  0  0
  2 34  1  0  0  0
  2 35  1  0  0  0
  3  4  1  0  0  0
  3 36  1  0  0  0
  4  5  1  0  0  0
  4 37  1  0  0  0
  5  6  1  0  0  0
  5 10  1  0  0  0
  5 38  1  0  0  0
  6 39  1  0  0  0
  6 40  1  0  0  0
  6 41  1  0  0  0
  7  8  1  0  0  0
  7 12  2  0  0  0
  7 13  1  0  0  0
  8  9  2  0  0  0
  8 42  1  0  0  0
  9 10  1  0  0  0
  9 43  1  0  0  0
 10 11  2  0  0  0
 11 12  1  0  0  0
 11 44  1  0  0  0
 12 45  1  0  0  0
 13 14  2  0  0  0
 13 17  1  0  0  0
 14 15  1  0  0  0
 14 46  1  0  0  0
 15 16  2  0  0  0
 15 47  1  0  0  0
 16 17  1  0  0  0
 16 18  1  0  0  0
 18 19  1  0  0  0
 18 23  2  0  0  0
 19 20  2  0  0  0
 19 48  1  0  0  0
 20 21  1  0  0  0
 20 49  1  0  0  0
 21 22  2  0  0  0
 21 24  1  0  0  0
 22 23  1  0  0  0
 22 50  1  0  0  0
 23 51  1  0  0  0
 24 25  1  0  0  0
 24 26  1  0  0  0
 24 52  1  0  0  0
 25 53  1  0  0  0
 25 54  1  0  0  0
 25 55  1  0  0  0
 26 27  1  0  0  0
 26 56  1  0  0  0
 27 28  1  0  0  0
 27 29  1  0  0  0
 27 57  1  0  0  0
 28 58  1  0  0  0
 28 59  1  0  0  0
 28 60  1  0  0  0
 29 61  1  0  0  0
 29 62  1  0  0  0
 29 63  1  0  0  0
M  CHG  2   6   1  25   1
M  END
> <s_pdb_PDB_format_version>
3.0

> <b_ppw_prepared>
1

> <s_ppw_prepared_with_version>
2021-1

> <s_ppw_het_states>
eJztlsFuwjAQRH8l4hwh7yRx4v4K4g8Qt54Q/16vu5NY6qk3EMOBnY3j0XryFHic7PQ1XOrHxiFdx+GCqFPUOeoSNY+DeV2j36KWqJYo6Gi0NHoaTY2ulinoazQ2OoPO2GelM+gMOmOJOUFn0Bl0RnN25aefuOGQtc4ha6VjrfmQfl4Gsh3SDw1q+tX1EpdLt7MJiwUXvtmYmIeFvVm54oNxoiYyb8v9bd5wrCZK13hsYMYeL5izR2zMGjxLa5hIu7qH5kMufcOIXIDjuMDWN22c2tnZ1lSbx3Mc7t+32+93ezZCU2gKTaEpND8dzcRo9iSE5uuiOZUF/0aTT4FopjdBU29NoSk0habQFJpCU/81habQFJpC88N+0IXm+6CJ81zyHzKvzx/jyXQ8

$$$$
