@<TRIPOS>MOLECULE
MOL
   64    69     1     0     0
SMALL
bcc


@<TRIPOS>ATOM
      1 C1           8.5470    19.4690    13.6830 ca         1 MOL       0.204600
      2 C2           8.5600    21.2150    11.2010 ca         1 MOL      -0.193900
      3 C3           9.7420    19.9640    13.0300 ca         1 MOL      -0.205500
      4 C4           9.7390    20.8090    11.8310 ca         1 MOL      -0.052500
      5 C5           7.3400    19.9480    12.9530 ca         1 MOL      -0.205500
      6 C6           7.3420    20.7960    11.7510 ca         1 MOL      -0.052500
      7 N1           8.5800    18.5930    14.9140 nh         1 MOL      -0.665000
      8 C7           8.6320    22.0600     9.9900 cc         1 MOL       0.517400
      9 C8           9.5360    22.9910     8.1290 ca         1 MOL      -0.085200
     10 C9           8.2180    23.4500     8.3280 ca         1 MOL       0.103400
     11 C10          7.5930    24.3960     7.4120 ca         1 MOL      -0.078000
     12 C11          8.3930    24.8370     6.2850 ca         1 MOL      -0.104000
     13 C12          9.7380    24.3610     6.0900 ca         1 MOL      -0.133900
     14 C13         10.3260    23.4410     7.0000 ca         1 MOL      -0.114000
     15 N2           9.7530    22.1090     9.2140 na         1 MOL      -0.285300
     16 N3           7.7180    22.8690     9.4480 nd         1 MOL      -0.571100
     17 C14         10.4730    24.8550     4.9090 cc         1 MOL       0.513400
     18 C15         12.0100    25.0360     3.1980 ca         1 MOL      -0.081200
     19 C16         11.0710    26.1020     3.1760 ca         1 MOL       0.093400
     20 C17         11.1110    27.1560     2.1710 ca         1 MOL      -0.055000
     21 C18         12.1810    27.0610     1.1840 ca         1 MOL      -0.178000
     22 C19         13.1650    25.9590     1.2000 ca         1 MOL       0.044600
     23 N4          11.6020    24.2550     4.3210 na         1 MOL      -0.277300
     24 N5          10.2190    25.9190     4.1960 nd         1 MOL      -0.556100
     25 C20         13.0860    24.9490     2.2010 ca         1 MOL      -0.089000
     26 N6          14.2540    25.8380     0.2130 nh         1 MOL      -0.615000
     27 N7          16.3010    25.6720    -1.8960 nx         1 MOL      -0.683400
     28 C21         15.4690    24.9130     0.4060 c3         1 MOL       0.145800
     29 C22         16.0870    24.4390    -0.9100 c3         1 MOL       0.105800
     30 C23         14.9740    26.4150    -2.1850 c3         1 MOL       0.105800
     31 C24         14.4160    26.9440    -0.8420 c3         1 MOL       0.145800
     32 C25         16.8790    25.4300    -3.2010 c3         1 MOL       0.084100
     33 C26          7.6300    17.8690    15.8870 c3         1 MOL       0.191100
     34 C27          9.6340    17.9670    15.8400 c3         1 MOL       0.191100
     35 H1          10.7160    19.7140    13.4250 ha         1 MOL       0.141000
     36 H2          10.6960    21.1180    11.4370 ha         1 MOL       0.139500
     37 H3           6.3550    19.6740    13.3000 ha         1 MOL       0.141000
     38 H4           6.4110    21.0960    11.2930 ha         1 MOL       0.139500
     39 H5           6.5830    24.7330     7.5900 ha         1 MOL       0.160000
     40 H6           7.9820    25.5360     5.5720 ha         1 MOL       0.156000
     41 H7          11.3340    23.0770     6.8670 ha         1 MOL       0.131000
     42 H8          10.5640    21.5600     9.4630 hn         1 MOL       0.308700
     43 H9          10.3740    27.9460     2.1870 ha         1 MOL       0.163000
     44 H10         12.2710    27.8100     0.4110 ha         1 MOL       0.123000
     45 H11         11.9840    23.4060     4.7120 hn         1 MOL       0.313700
     46 H12         13.7930    24.1330     2.2390 ha         1 MOL       0.149000
     47 H13         16.9070    26.3260    -1.4220 hn         1 MOL       0.445800
     48 H14         15.1740    24.0480     1.0000 h1         1 MOL       0.080450
     49 H15         16.2260    25.4290     0.9960 h1         1 MOL       0.080450
     50 H16         17.0470    23.9630    -0.7100 hx         1 MOL       0.107700
     51 H17         15.4270    23.7090    -1.3790 hx         1 MOL       0.107700
     52 H18         14.2590    25.7220    -2.6270 hx         1 MOL       0.107700
     53 H19         15.1660    27.2540    -2.8540 hx         1 MOL       0.107700
     54 H20         15.0770    27.7190    -0.4550 h1         1 MOL       0.080450
     55 H21         13.4530    27.4240    -1.0140 h1         1 MOL       0.080450
     56 H22         16.9560    26.3710    -3.7450 hx         1 MOL       0.104700
     57 H23         17.8720    24.9960    -3.0840 hx         1 MOL       0.104700
     58 H24         16.2450    24.7400    -3.7580 hx         1 MOL       0.104700
     59 H25          8.2140    17.3480    16.6450 h1         1 MOL       0.043033
     60 H26          6.9780    18.5980    16.3690 h1         1 MOL       0.043033
     61 H27          7.0250    17.1490    15.3360 h1         1 MOL       0.043033
     62 H28          9.1370    17.3940    16.6220 h1         1 MOL       0.043033
     63 H29         10.2800    17.3070    15.2620 h1         1 MOL       0.043033
     64 H30         10.2340    18.7560    16.2940 h1         1 MOL       0.043033
@<TRIPOS>BOND
     1     1     3 ar  
     2     1     5 ar  
     3     1     7 1   
     4     2     4 ar  
     5     2     6 ar  
     6     2     8 1   
     7     3     4 ar  
     8     3    35 1   
     9     4    36 1   
    10     5     6 ar  
    11     5    37 1   
    12     6    38 1   
    13     7    33 1   
    14     7    34 1   
    15     8    15 1   
    16     8    16 2   
    17     9    10 ar  
    18     9    14 ar  
    19     9    15 1   
    20    10    11 ar  
    21    10    16 1   
    22    11    12 ar  
    23    11    39 1   
    24    12    13 ar  
    25    12    40 1   
    26    13    14 ar  
    27    13    17 1   
    28    14    41 1   
    29    15    42 1   
    30    17    23 1   
    31    17    24 2   
    32    18    19 ar  
    33    18    23 1   
    34    18    25 ar  
    35    19    20 ar  
    36    19    24 1   
    37    20    21 ar  
    38    20    43 1   
    39    21    22 ar  
    40    21    44 1   
    41    22    25 ar  
    42    22    26 1   
    43    23    45 1   
    44    25    46 1   
    45    26    28 1   
    46    26    31 1   
    47    27    29 1   
    48    27    30 1   
    49    27    32 1   
    50    27    47 1   
    51    28    29 1   
    52    28    48 1   
    53    28    49 1   
    54    29    50 1   
    55    29    51 1   
    56    30    31 1   
    57    30    52 1   
    58    30    53 1   
    59    31    54 1   
    60    31    55 1   
    61    32    56 1   
    62    32    57 1   
    63    32    58 1   
    64    33    59 1   
    65    33    60 1   
    66    33    61 1   
    67    34    62 1   
    68    34    63 1   
    69    34    64 1   
@<TRIPOS>SUBSTRUCTURE
     1 MOL         1 TEMP              0 ****  ****    0 ROOT
