
                    3D
 Schrodinger Suite 2021-1.
 64 69  0  0  1  0            999 V2000
    8.5470   19.4690   13.6830 C   0  0  0  0  0  0
    8.5600   21.2150   11.2010 C   0  0  0  0  0  0
    9.7420   19.9640   13.0300 C   0  0  0  0  0  0
    9.7390   20.8090   11.8310 C   0  0  0  0  0  0
    7.3400   19.9480   12.9530 C   0  0  0  0  0  0
    7.3420   20.7960   11.7510 C   0  0  0  0  0  0
    8.5800   18.5930   14.9140 N   0  0  0  0  0  0
    8.6320   22.0600    9.9900 C   0  0  0  0  0  0
    9.5360   22.9910    8.1290 C   0  0  0  0  0  0
    8.2180   23.4500    8.3280 C   0  0  0  0  0  0
    7.5930   24.3960    7.4120 C   0  0  0  0  0  0
    8.3930   24.8370    6.2850 C   0  0  0  0  0  0
    9.7380   24.3610    6.0900 C   0  0  0  0  0  0
   10.3260   23.4410    7.0000 C   0  0  0  0  0  0
    9.7530   22.1090    9.2140 N   0  0  0  0  0  0
    7.7180   22.8690    9.4480 N   0  0  0  0  0  0
   10.4730   24.8550    4.9090 C   0  0  0  0  0  0
   12.0100   25.0360    3.1980 C   0  0  0  0  0  0
   11.0710   26.1020    3.1760 C   0  0  0  0  0  0
   11.1110   27.1560    2.1710 C   0  0  0  0  0  0
   12.1810   27.0610    1.1840 C   0  0  0  0  0  0
   13.1650   25.9590    1.2000 C   0  0  0  0  0  0
   11.6020   24.2550    4.3210 N   0  0  0  0  0  0
   10.2190   25.9190    4.1960 N   0  0  0  0  0  0
   13.0860   24.9490    2.2010 C   0  0  0  0  0  0
   14.2540   25.8380    0.2130 N   0  0  0  0  0  0
   16.3010   25.6720   -1.8960 N   0  3  0  0  0  0
   15.4690   24.9130    0.4060 C   0  0  0  0  0  0
   16.0870   24.4390   -0.9100 C   0  0  0  0  0  0
   14.9740   26.4150   -2.1850 C   0  0  0  0  0  0
   14.4160   26.9440   -0.8420 C   0  0  0  0  0  0
   16.8790   25.4300   -3.2010 C   0  0  0  0  0  0
    7.6300   17.8690   15.8870 C   0  0  0  0  0  0
    9.6340   17.9670   15.8400 C   0  0  0  0  0  0
   10.7158   19.7142   13.4246 H   0  0  0  0  0  0
   10.6959   21.1178   11.4367 H   0  0  0  0  0  0
    6.3548   19.6738   13.3001 H   0  0  0  0  0  0
    6.4111   21.0956   11.2927 H   0  0  0  0  0  0
    6.5827   24.7333    7.5904 H   0  0  0  0  0  0
    7.9820   25.5360    5.5717 H   0  0  0  0  0  0
   11.3343   23.0774    6.8673 H   0  0  0  0  0  0
   10.5636   21.5601    9.4625 H   0  0  0  0  0  0
   10.3745   27.9458    2.1872 H   0  0  0  0  0  0
   12.2711   27.8103    0.4115 H   0  0  0  0  0  0
   11.9838   23.4056    4.7121 H   0  0  0  0  0  0
   13.7926   24.1331    2.2389 H   0  0  0  0  0  0
   16.9074   26.3261   -1.4221 H   0  0  0  0  0  0
   15.1743   24.0477    0.9997 H   0  0  0  0  0  0
   16.2263   25.4289    0.9963 H   0  0  0  0  0  0
   17.0471   23.9635   -0.7097 H   0  0  0  0  0  0
   15.4269   23.7094   -1.3791 H   0  0  0  0  0  0
   14.2587   25.7216   -2.6273 H   0  0  0  0  0  0
   15.1660   27.2540   -2.8539 H   0  0  0  0  0  0
   15.0774   27.7193   -0.4553 H   0  0  0  0  0  0
   13.4528   27.4243   -1.0141 H   0  0  0  0  0  0
   16.9560   26.3714   -3.7451 H   0  0  0  0  0  0
   17.8721   24.9961   -3.0843 H   0  0  0  0  0  0
   16.2447   24.7401   -3.7576 H   0  0  0  0  0  0
    8.2141   17.3476   16.6454 H   0  0  0  0  0  0
    6.9780   18.5977   16.3687 H   0  0  0  0  0  0
    7.0249   17.1488   15.3364 H   0  0  0  0  0  0
    9.1366   17.3937   16.6223 H   0  0  0  0  0  0
   10.2804   17.3068   15.2617 H   0  0  0  0  0  0
   10.2340   18.7557   16.2940 H   0  0  0  0  0  0
  1  3  2  0  0  0
  1  5  1  0  0  0
  1  7  1  0  0  0
  2  4  2  0  0  0
  2  6  1  0  0  0
  2  8  1  0  0  0
  3  4  1  0  0  0
  3 35  1  0  0  0
  4 36  1  0  0  0
  5  6  2  0  0  0
  5 37  1  0  0  0
  6 38  1  0  0  0
  7 33  1  0  0  0
  7 34  1  0  0  0
  8 15  1  0  0  0
  8 16  2  0  0  0
  9 10  2  0  0  0
  9 14  1  0  0  0
  9 15  1  0  0  0
 10 11  1  0  0  0
 10 16  1  0  0  0
 11 12  2  0  0  0
 11 39  1  0  0  0
 12 13  1  0  0  0
 12 40  1  0  0  0
 13 14  2  0  0  0
 13 17  1  0  0  0
 14 41  1  0  0  0
 15 42  1  0  0  0
 17 23  1  0  0  0
 17 24  2  0  0  0
 18 19  2  0  0  0
 18 23  1  0  0  0
 18 25  1  0  0  0
 19 20  1  0  0  0
 19 24  1  0  0  0
 20 21  2  0  0  0
 20 43  1  0  0  0
 21 22  1  0  0  0
 21 44  1  0  0  0
 22 25  2  0  0  0
 22 26  1  0  0  0
 23 45  1  0  0  0
 25 46  1  0  0  0
 26 28  1  0  0  0
 26 31  1  0  0  0
 27 29  1  0  0  0
 27 30  1  0  0  0
 27 32  1  0  0  0
 27 47  1  0  0  0
 28 29  1  0  0  0
 28 48  1  0  0  0
 28 49  1  0  0  0
 29 50  1  0  0  0
 29 51  1  0  0  0
 30 31  1  0  0  0
 30 52  1  0  0  0
 30 53  1  0  0  0
 31 54  1  0  0  0
 31 55  1  0  0  0
 32 56  1  0  0  0
 32 57  1  0  0  0
 32 58  1  0  0  0
 33 59  1  0  0  0
 33 60  1  0  0  0
 33 61  1  0  0  0
 34 62  1  0  0  0
 34 63  1  0  0  0
 34 64  1  0  0  0
M  CHG  1  27   1
M  END
> <s_pdb_PDB_format_version>
3.0

> <b_ppw_prepared>
1

> <s_ppw_prepared_with_version>
2021-1

> <s_ppw_het_states>
eJztmE1uwyAQha9ieW1ZzABj6FWi3qDqrquod+8M4WHUVaRWreOQRZixJ8/85NPDXGeaX6aLfmiZ3OsyXbi2vrahtrG2Ututtqm2ubbkEECRIEnQJIgSVAmyBF2CMEGZocytr1BmKDOUGcoMZVZlKgGUGcoeyh7Kvk0DlH1RtsimSq9y6dwyxSqrYXvCMoVaoKHsV1MNfSmgOq9Sa/Xn9jhCjBL7Vexi1Gv3bbZbjPrc1VuBrcSeoDvlKmMcGhCeXQIMoCQYmAXs+6SVWcdyl+xllrTuWInrE3TartrCMlbYFpewyibALWkzajORusRjpLbYtrwt8a5PmnTqyqzkJqCZW/MmWnqdSZQQWilqT2cOmti95D+X6f3j7e32Xf4Xj88QnZ0h7hhqrPwPQ9wz1Eg5E0O0OidcGIqFIZashXPgkvkC2BzsXlxJa8+I1Olt6UBInd+WFCmW2CFFcfclu5moAyy7eEakTu9SB9rpPYVLeZFup8ebUOdL3uUzQjR8aUD0mxBFsSE0X5JsMzGzv7lUDmH3pcwSAJhlNDZ+jwjYcKm/BSxzfx6xbTtezCF1QEU+Ek80eHo4w3qGFykJoRhWfXUSSQkWFddM4ZgHfG1lxqvTMKX/hyhvduBwvVmPrC7HcEhsfug992DjBjYDm7uw4dVHn9pejnVrZ2sDiPTm0544DIjGBu5uiFKmHiKRdhLOK2f55kSvn1/Wz9JC

$$$$
