@<TRIPOS>MOLECULE
MOL
   74    80     1     0     0
SMALL
bcc


@<TRIPOS>ATOM
      1 C1          -5.9520    -0.8670     1.7990 ca         1 MOL      -0.012300
      2 C2          -4.3100     1.1410     1.0480 c3         1 MOL       0.005600
      3 C3          -4.4770    -0.3920     1.4360 c3         1 MOL      -0.070500
      4 C4          -6.1340     2.6280     2.3040 ca         1 MOL      -0.082000
      5 C5          -3.9700    -1.0970     0.1410 c2         1 MOL      -0.108200
      6 C6          -3.9940     1.1860    -0.4890 c3         1 MOL      -0.059500
      7 C7          -5.4970     2.1340     1.1520 ca         1 MOL      -0.083300
      8 C8          -6.2820    -1.2710     3.1010 ca         1 MOL      -0.125800
      9 C9          -3.7310    -0.2310    -0.8740 c2         1 MOL      -0.194200
     10 C10         -3.4430    -0.6600     2.5820 c          1 MOL       0.584300
     11 C11         -5.9650     2.4990    -0.1120 ca         1 MOL      -0.114300
     12 C12         -6.9430    -0.8390     0.8080 ca         1 MOL      -0.200000
     13 C13         -8.2580    -1.1920     1.1010 ca         1 MOL       0.152100
     14 C14         -7.6960     3.8400     0.8630 ca         1 MOL      -0.046000
     15 C15         -8.5820    -1.5990     2.4030 ca         1 MOL      -0.151000
     16 C16         -7.5990    -1.6400     3.3960 ca         1 MOL      -0.070000
     17 C17         -7.2320     3.4880     2.1630 ca         1 MOL      -0.028000
     18 C18         -3.9140    -1.0560     3.9570 ce         1 MOL      -0.267200
     19 C19         -7.0630     3.3320    -0.2570 ca         1 MOL      -0.077000
     20 C20         -7.8800     3.9990     3.2860 ca         1 MOL      -0.116000
     21 C21         -5.1700     1.8690    -1.2290 c3         1 MOL       0.199400
     22 C22         -5.2270    -1.3280     4.2060 cf         1 MOL      -0.007200
     23 C23         -9.4230     5.2070     1.8420 ca         1 MOL      -0.113000
     24 C24         -8.7840     4.6950     0.7170 ca         1 MOL      -0.122000
     25 C25         -8.9790     4.8610     3.1240 ca         1 MOL      -0.111000
     26 C26         -4.8270     2.9410    -3.5770 c3         1 MOL       0.320900
     27 O1          -5.8790     2.0770    -4.1540 os         1 MOL      -0.393600
     28 C27         -7.2640     2.3640    -3.7800 c3         1 MOL       0.152100
     29 C28         -7.5780     3.8190    -4.1680 c3         1 MOL       0.087100
     30 O2          -7.4920     3.9810    -5.5570 oh         1 MOL      -0.571800
     31 C29         -6.5910     4.7670    -3.5420 c3         1 MOL       0.089100
     32 O3          -6.8990     6.0890    -3.9540 oh         1 MOL      -0.624800
     33 C30         -5.1460     4.4040    -3.9270 c3         1 MOL       0.090500
     34 N1          -4.2190     5.2830    -3.2340 ny         1 MOL      -0.740000
     35 C31         -8.2190     1.3770    -4.4670 c3         1 MOL      -0.094100
     36 O4          -4.7070     2.8870    -2.1240 os         1 MOL      -0.474600
     37 C32         -3.5060     6.4610    -3.7850 c3         1 MOL       0.080100
     38 O5          -9.1960    -1.1080     0.0720 os         1 MOL      -0.314900
     39 C33         -9.2780     0.0280    -0.8190 c3         1 MOL       0.109700
     40 O6          -2.2420    -0.4940     2.3620 o          1 MOL      -0.552100
     41 H1          -3.4600     1.5510     1.5940 hc         1 MOL       0.076700
     42 H2          -5.7760     2.3440     3.2830 ha         1 MOL       0.151000
     43 H3          -3.8050    -2.1550    -0.0010 ha         1 MOL       0.165000
     44 H4          -3.0880     1.7710    -0.6480 hc         1 MOL       0.033700
     45 H5          -3.3890    -0.6000    -1.8300 ha         1 MOL       0.148000
     46 H6          -6.6910    -0.5410    -0.1990 ha         1 MOL       0.146000
     47 H7          -9.5960    -1.8830     2.6430 ha         1 MOL       0.163000
     48 H8          -7.8600    -1.9580     4.3940 ha         1 MOL       0.146000
     49 H9          -3.2070    -1.1290     4.7700 ha         1 MOL       0.162000
     50 H10         -7.4230     3.5840    -1.2440 ha         1 MOL       0.135000
     51 H11         -7.5370     3.7320     4.2750 ha         1 MOL       0.143000
     52 H12         -5.7710     1.1320    -1.7620 h1         1 MOL       0.085700
     53 H13         -5.5140    -1.5890     5.2140 ha         1 MOL       0.146000
     54 H14        -10.2650     5.8740     1.7280 ha         1 MOL       0.144000
     55 H15         -9.1330     4.9620    -0.2700 ha         1 MOL       0.134000
     56 H16         -9.4850     5.2600     3.9910 ha         1 MOL       0.146000
     57 H17         -3.8680     2.6730    -4.0200 h2         1 MOL       0.105700
     58 H18         -7.3660     2.2580    -2.7000 h1         1 MOL       0.065700
     59 H19         -8.5850     4.0730    -3.8360 h1         1 MOL       0.070700
     60 H20         -7.6900     4.8920    -5.7860 ho         1 MOL       0.418000
     61 H21         -6.6890     4.7070    -2.4580 h1         1 MOL       0.084700
     62 H22         -6.2740     6.7020    -3.5590 ho         1 MOL       0.441000
     63 H23         -5.0240     4.5420    -5.0010 hx         1 MOL       0.146700
     64 H24         -3.5430     4.7060    -2.7540 hn         1 MOL       0.458300
     65 H25         -4.6440     5.5570    -2.3600 hn         1 MOL       0.458300
     66 H26         -9.2450     1.6030    -4.1790 hc         1 MOL       0.066700
     67 H27         -8.1180     1.4660    -5.5490 hc         1 MOL       0.066700
     68 H28         -7.9730     0.3600    -4.1620 hc         1 MOL       0.066700
     69 H29         -2.8840     6.9060    -3.0080 hx         1 MOL       0.112033
     70 H30         -2.8770     6.1490    -4.6190 hx         1 MOL       0.112033
     71 H31         -4.2320     7.1950    -4.1340 hx         1 MOL       0.112033
     72 H32        -10.0820    -0.1310    -1.5380 h1         1 MOL       0.049700
     73 H33         -9.4800     0.9300    -0.2410 h1         1 MOL       0.049700
     74 H34         -8.3330     0.1420    -1.3510 h1         1 MOL       0.049700
@<TRIPOS>BOND
     1     1     3 1   
     2     1     8 ar  
     3     1    12 ar  
     4     2     3 1   
     5     2     6 1   
     6     2     7 1   
     7     2    41 1   
     8     3     5 1   
     9     3    10 1   
    10     4     7 ar  
    11     4    17 ar  
    12     4    42 1   
    13     5     9 2   
    14     5    43 1   
    15     6     9 1   
    16     6    21 1   
    17     6    44 1   
    18     7    11 ar  
    19     8    16 ar  
    20     8    22 1   
    21     9    45 1   
    22    10    18 1   
    23    10    40 2   
    24    11    19 ar  
    25    11    21 1   
    26    12    13 ar  
    27    12    46 1   
    28    13    15 ar  
    29    13    38 1   
    30    14    17 ar  
    31    14    19 ar  
    32    14    24 ar  
    33    15    16 ar  
    34    15    47 1   
    35    16    48 1   
    36    17    20 ar  
    37    18    22 2   
    38    18    49 1   
    39    19    50 1   
    40    20    25 ar  
    41    20    51 1   
    42    21    36 1   
    43    21    52 1   
    44    22    53 1   
    45    23    24 ar  
    46    23    25 ar  
    47    23    54 1   
    48    24    55 1   
    49    25    56 1   
    50    26    27 1   
    51    26    33 1   
    52    26    36 1   
    53    26    57 1   
    54    27    28 1   
    55    28    29 1   
    56    28    35 1   
    57    28    58 1   
    58    29    30 1   
    59    29    31 1   
    60    29    59 1   
    61    30    60 1   
    62    31    32 1   
    63    31    33 1   
    64    31    61 1   
    65    32    62 1   
    66    33    34 1   
    67    33    63 1   
    68    34    37 1   
    69    34    64 1   
    70    34    65 1   
    71    35    66 1   
    72    35    67 1   
    73    35    68 1   
    74    37    69 1   
    75    37    70 1   
    76    37    71 1   
    77    38    39 1   
    78    39    72 1   
    79    39    73 1   
    80    39    74 1   
@<TRIPOS>SUBSTRUCTURE
     1 MOL         1 TEMP              0 ****  ****    0 ROOT
