
                    3D
 Schrodinger Suite 2021-1.
 74 80  0  0  1  0            999 V2000
   -5.9520   -0.8670    1.7990 C   0  0  0  0  0  0
   -4.3100    1.1410    1.0480 C   0  0  1  0  0  0
   -4.4770   -0.3920    1.4360 C   0  0  2  0  0  0
   -6.1340    2.6280    2.3040 C   0  0  0  0  0  0
   -3.9700   -1.0970    0.1410 C   0  0  0  0  0  0
   -3.9940    1.1860   -0.4890 C   0  0  1  0  0  0
   -5.4970    2.1340    1.1520 C   0  0  0  0  0  0
   -6.2820   -1.2710    3.1010 C   0  0  0  0  0  0
   -3.7310   -0.2310   -0.8740 C   0  0  0  0  0  0
   -3.4430   -0.6600    2.5820 C   0  0  0  0  0  0
   -5.9650    2.4990   -0.1120 C   0  0  0  0  0  0
   -6.9430   -0.8390    0.8080 C   0  0  0  0  0  0
   -8.2580   -1.1920    1.1010 C   0  0  0  0  0  0
   -7.6960    3.8400    0.8630 C   0  0  0  0  0  0
   -8.5820   -1.5990    2.4030 C   0  0  0  0  0  0
   -7.5990   -1.6400    3.3960 C   0  0  0  0  0  0
   -7.2320    3.4880    2.1630 C   0  0  0  0  0  0
   -3.9140   -1.0560    3.9570 C   0  0  0  0  0  0
   -7.0630    3.3320   -0.2570 C   0  0  0  0  0  0
   -7.8800    3.9990    3.2860 C   0  0  0  0  0  0
   -5.1700    1.8690   -1.2290 C   0  0  1  0  0  0
   -5.2270   -1.3280    4.2060 C   0  0  0  0  0  0
   -9.4230    5.2070    1.8420 C   0  0  0  0  0  0
   -8.7840    4.6950    0.7170 C   0  0  0  0  0  0
   -8.9790    4.8610    3.1240 C   0  0  0  0  0  0
   -4.8270    2.9410   -3.5770 C   0  0  1  0  0  0
   -5.8790    2.0770   -4.1540 O   0  0  0  0  0  0
   -7.2640    2.3640   -3.7800 C   0  0  1  0  0  0
   -7.5780    3.8190   -4.1680 C   0  0  2  0  0  0
   -7.4920    3.9810   -5.5570 O   0  0  0  0  0  0
   -6.5910    4.7670   -3.5420 C   0  0  2  0  0  0
   -6.8990    6.0890   -3.9540 O   0  0  0  0  0  0
   -5.1460    4.4040   -3.9270 C   0  0  1  0  0  0
   -4.2190    5.2830   -3.2340 N   0  3  0  0  0  0
   -8.2190    1.3770   -4.4670 C   0  0  0  0  0  0
   -4.7070    2.8870   -2.1240 O   0  0  0  0  0  0
   -3.5060    6.4610   -3.7850 C   0  0  0  0  0  0
   -9.1960   -1.1080    0.0720 O   0  0  0  0  0  0
   -9.2780    0.0280   -0.8190 C   0  0  0  0  0  0
   -2.2420   -0.4940    2.3620 O   0  0  0  0  0  0
   -3.4601    1.5510    1.5936 H   0  0  0  0  0  0
   -5.7762    2.3441    3.2827 H   0  0  0  0  0  0
   -3.8048   -2.1547   -0.0014 H   0  0  0  0  0  0
   -3.0878    1.7706   -0.6477 H   0  0  0  0  0  0
   -3.3890   -0.6002   -1.8296 H   0  0  0  0  0  0
   -6.6914   -0.5407   -0.1990 H   0  0  0  0  0  0
   -9.5959   -1.8831    2.6434 H   0  0  0  0  0  0
   -7.8599   -1.9583    4.3945 H   0  0  0  0  0  0
   -3.2066   -1.1293    4.7698 H   0  0  0  0  0  0
   -7.4233    3.5837   -1.2435 H   0  0  0  0  0  0
   -7.5375    3.7325    4.2750 H   0  0  0  0  0  0
   -5.7707    1.1316   -1.7615 H   0  0  0  0  0  0
   -5.5142   -1.5888    5.2139 H   0  0  0  0  0  0
  -10.2648    5.8739    1.7282 H   0  0  0  0  0  0
   -9.1328    4.9615   -0.2698 H   0  0  0  0  0  0
   -9.4850    5.2596    3.9909 H   0  0  0  0  0  0
   -3.8680    2.6732   -4.0204 H   0  0  0  0  0  0
   -7.3659    2.2581   -2.6999 H   0  0  0  0  0  0
   -8.5845    4.0730   -3.8357 H   0  0  0  0  0  0
   -7.6898    4.8920   -5.7862 H   0  0  0  0  0  0
   -6.6889    4.7074   -2.4580 H   0  0  0  0  0  0
   -6.2740    6.7015   -3.5592 H   0  0  0  0  0  0
   -5.0239    4.5423   -5.0013 H   0  0  0  0  0  0
   -3.5431    4.7064   -2.7536 H   0  0  0  0  0  0
   -4.6441    5.5570   -2.3597 H   0  0  0  0  0  0
   -9.2455    1.6035   -4.1788 H   0  0  0  0  0  0
   -8.1178    1.4659   -5.5486 H   0  0  0  0  0  0
   -7.9725    0.3600   -4.1619 H   0  0  0  0  0  0
   -2.8842    6.9061   -3.0082 H   0  0  0  0  0  0
   -2.8770    6.1485   -4.6185 H   0  0  0  0  0  0
   -4.2320    7.1954   -4.1338 H   0  0  0  0  0  0
  -10.0821   -0.1305   -1.5376 H   0  0  0  0  0  0
   -9.4803    0.9298   -0.2411 H   0  0  0  0  0  0
   -8.3334    0.1422   -1.3509 H   0  0  0  0  0  0
  1  3  1  0  0  0
  1  8  2  0  0  0
  1 12  1  0  0  0
  2  3  1  0  0  0
  2  6  1  0  0  0
  2  7  1  0  0  0
  2 41  1  0  0  0
  3  5  1  0  0  0
  3 10  1  0  0  0
  4  7  2  0  0  0
  4 17  1  0  0  0
  4 42  1  0  0  0
  5  9  2  0  0  0
  5 43  1  0  0  0
  6  9  1  0  0  0
  6 21  1  0  0  0
  6 44  1  0  0  0
  7 11  1  0  0  0
  8 16  1  0  0  0
  8 22  1  0  0  0
  9 45  1  0  0  0
 10 18  1  0  0  0
 10 40  2  0  0  0
 11 19  2  0  0  0
 11 21  1  0  0  0
 12 13  2  0  0  0
 12 46  1  0  0  0
 13 15  1  0  0  0
 13 38  1  0  0  0
 14 17  1  0  0  0
 14 19  1  0  0  0
 14 24  2  0  0  0
 15 16  2  0  0  0
 15 47  1  0  0  0
 16 48  1  0  0  0
 17 20  2  0  0  0
 18 22  2  0  0  0
 18 49  1  0  0  0
 19 50  1  0  0  0
 20 25  1  0  0  0
 20 51  1  0  0  0
 21 36  1  0  0  0
 21 52  1  0  0  0
 22 53  1  0  0  0
 23 24  1  0  0  0
 23 25  2  0  0  0
 23 54  1  0  0  0
 24 55  1  0  0  0
 25 56  1  0  0  0
 26 27  1  0  0  0
 26 33  1  0  0  0
 26 36  1  0  0  0
 26 57  1  0  0  0
 27 28  1  0  0  0
 28 29  1  0  0  0
 28 35  1  0  0  0
 28 58  1  0  0  0
 29 30  1  0  0  0
 29 31  1  0  0  0
 29 59  1  0  0  0
 30 60  1  0  0  0
 31 32  1  0  0  0
 31 33  1  0  0  0
 31 61  1  0  0  0
 32 62  1  0  0  0
 33 34  1  0  0  0
 33 63  1  0  0  0
 34 37  1  0  0  0
 34 64  1  0  0  0
 34 65  1  0  0  0
 35 66  1  0  0  0
 35 67  1  0  0  0
 35 68  1  0  0  0
 37 69  1  0  0  0
 37 70  1  0  0  0
 37 71  1  0  0  0
 38 39  1  0  0  0
 39 72  1  0  0  0
 39 73  1  0  0  0
 39 74  1  0  0  0
M  CHG  1  34   1
M  END
> <i_pdb_PDB_Model>
1

> <s_pdb_PDB_format_version>
3.0

> <b_ppw_prepared>
1

> <s_ppw_prepared_with_version>
2021-1

> <s_ppw_het_states>
eJztkzuOwzAMRK9ipDYCzdCfeK8S5AZBulRB7r6iwpFUpltgIRfm0JYfx5T4OuH0M13zhXlKt3m6MqJFXCKuEbeIe8RLxCMikoSIEBJiQlCICmEhLgSGyBSZ1avIFJkiU2SKTJEpMkU2kU1kq20Q2TIZRYhsIpvIJrKJvBSyK2+wBSLLvJIhvT+I1luTW5O7Ss/T2qR3GrFFe+DcpFbnpUc83opESO8fYg8hnQ1ha5oyVapcusR/idpgHF1SueWPTG/cqmx7YpXWuy3J0SW+ldQhcWvU+WB1EEap40HVcStWO2gfWktWfeNYOfDErE8qwIvKtQseXWK1aH5qqU/UEBfGPlEdF+1oZWF1sx1d6uQsnbEv+e3rPU+P5/3+uZdzNSb3i8lNY3LH5P7J5OJMpjG5Y3LH5P6Pyb29fwHTSFRO

$$$$
