@<TRIPOS>MOLECULE
MOL
   67    72     1     0     0
SMALL
bcc


@<TRIPOS>ATOM
      1 C1           8.6410    19.7810    13.5070 ca         1 MOL       0.204600
      2 C2           8.6490    21.5550    10.9890 ca         1 MOL      -0.198900
      3 C3           9.8130    20.2380    12.8160 ca         1 MOL      -0.207000
      4 C4           9.8120    21.0870    11.6110 ca         1 MOL      -0.068000
      5 C5           7.4380    20.3100    12.8060 ca         1 MOL      -0.210000
      6 C6           7.4240    21.1590    11.6000 ca         1 MOL       0.022700
      7 N1           8.6400    18.8920    14.7550 nh         1 MOL      -0.663000
      8 C7           8.7800    22.4150     9.7540 cc         1 MOL       0.518400
      9 C8           9.6800    23.3220     7.8570 ca         1 MOL      -0.084200
     10 C9           8.4210    23.8690     8.1350 ca         1 MOL       0.099400
     11 C10          7.8120    24.8950     7.2730 ca         1 MOL      -0.077000
     12 C11          8.5850    25.3090     6.1160 ca         1 MOL      -0.106000
     13 C12          9.8630    24.7370     5.8520 ca         1 MOL      -0.131900
     14 C13         10.4130    23.7570     6.7040 ca         1 MOL      -0.115000
     15 N2           9.8870    22.3810     8.9250 na         1 MOL      -0.285300
     16 N3           7.9360    23.2970     9.2680 nd         1 MOL      -0.565100
     17 C14         10.5980    25.1720     4.6820 cc         1 MOL       0.512400
     18 C15         12.1460    25.2370     3.0450 ca         1 MOL      -0.081200
     19 C16         11.2230    26.3030     2.9550 ca         1 MOL       0.093400
     20 C17         11.2950    27.3040     1.9150 ca         1 MOL      -0.055000
     21 C18         12.3950    27.1610     0.9410 ca         1 MOL      -0.178000
     22 C19         13.3640    26.0450     1.0410 ca         1 MOL       0.044600
     23 N4          11.7190    24.5250     4.1620 na         1 MOL      -0.277300
     24 N5          10.3560    26.1950     3.9390 nd         1 MOL      -0.556100
     25 C20         13.2310    25.0970     2.0860 ca         1 MOL      -0.089000
     26 N6          14.4590    25.9380     0.0430 nh         1 MOL      -0.615000
     27 N7          16.7400    25.7450    -1.9400 nx         1 MOL      -0.683400
     28 C21         15.6800    24.9980     0.2470 c3         1 MOL       0.145800
     29 C22         16.3020    24.5750    -1.1300 c3         1 MOL       0.105800
     30 C23         15.5070    26.6710    -2.2230 c3         1 MOL       0.105800
     31 C24         14.8740    27.1370    -0.8910 c3         1 MOL       0.145800
     32 C25         17.2510    25.3750    -3.1930 c3         1 MOL       0.084100
     33 C26          7.6300    18.2350    15.7080 c3         1 MOL       0.189600
     34 C27          9.6370    18.1980    15.6900 c3         1 MOL       0.189600
     35 C28          6.0480    21.5860    11.0430 c3         1 MOL      -0.063800
     36 H1          10.7930    19.9610    13.1740 ha         1 MOL       0.139000
     37 H2          10.7810    21.3450    11.2090 ha         1 MOL       0.129000
     38 H3           6.4510    20.0780    13.1780 ha         1 MOL       0.142000
     39 H4           6.8400    25.2980     7.5170 ha         1 MOL       0.160000
     40 H5           8.1930    26.0580     5.4440 ha         1 MOL       0.156000
     41 H6          11.3830    23.3340     6.4900 ha         1 MOL       0.131000
     42 H7          10.6550    21.7590     9.1330 hn         1 MOL       0.309700
     43 H8          10.5670    28.1010     1.8810 ha         1 MOL       0.163000
     44 H9          12.5030    27.8770     0.1390 ha         1 MOL       0.123000
     45 H10         12.0710    23.6890     4.6060 hn         1 MOL       0.313700
     46 H11         13.9270    24.2760     2.1740 ha         1 MOL       0.149000
     47 H12         17.4410    26.2640    -1.4300 hn         1 MOL       0.445800
     48 H13         15.3660    24.1080     0.7920 h1         1 MOL       0.080450
     49 H14         16.4350    25.5090     0.8450 h1         1 MOL       0.080450
     50 H15         17.1520    23.9160    -0.9560 hx         1 MOL       0.107700
     51 H16         15.5710    23.9960    -1.6950 hx         1 MOL       0.107700
     52 H17         14.7660    26.1220    -2.8040 hx         1 MOL       0.107700
     53 H18         15.8300    27.5410    -2.7950 hx         1 MOL       0.107700
     54 H19         15.5760    27.7820    -0.3620 h1         1 MOL       0.080450
     55 H20         13.9990    27.7520    -1.1010 h1         1 MOL       0.080450
     56 H21         17.5550    26.2670    -3.7400 hx         1 MOL       0.104700
     57 H22         18.1130    24.7230    -3.0560 hx         1 MOL       0.104700
     58 H23         16.4830    24.8470    -3.7580 hx         1 MOL       0.104700
     59 H24          8.1650    17.6760    16.4760 h1         1 MOL       0.042367
     60 H25          7.0190    19.0060    16.1790 h1         1 MOL       0.042367
     61 H26          6.9880    17.5560    15.1460 h1         1 MOL       0.042367
     62 H27          9.0940    17.6600    16.4670 h1         1 MOL       0.042367
     63 H28         10.2430    17.4950    15.1180 h1         1 MOL       0.042367
     64 H29         10.2840    18.9450    16.1510 h1         1 MOL       0.042367
     65 H30          5.2580    21.1690    11.6670 hc         1 MOL       0.056033
     66 H31          5.9760    22.6740    11.0450 hc         1 MOL       0.056033
     67 H32          5.9380    21.2170    10.0230 hc         1 MOL       0.056033
@<TRIPOS>BOND
     1     1     3 ar  
     2     1     5 ar  
     3     1     7 1   
     4     2     4 ar  
     5     2     6 ar  
     6     2     8 1   
     7     3     4 ar  
     8     3    36 1   
     9     4    37 1   
    10     5     6 ar  
    11     5    38 1   
    12     6    35 1   
    13     7    33 1   
    14     7    34 1   
    15     8    15 1   
    16     8    16 2   
    17     9    10 ar  
    18     9    14 ar  
    19     9    15 1   
    20    10    11 ar  
    21    10    16 1   
    22    11    12 ar  
    23    11    39 1   
    24    12    13 ar  
    25    12    40 1   
    26    13    14 ar  
    27    13    17 1   
    28    14    41 1   
    29    15    42 1   
    30    17    23 1   
    31    17    24 2   
    32    18    19 ar  
    33    18    23 1   
    34    18    25 ar  
    35    19    20 ar  
    36    19    24 1   
    37    20    21 ar  
    38    20    43 1   
    39    21    22 ar  
    40    21    44 1   
    41    22    25 ar  
    42    22    26 1   
    43    23    45 1   
    44    25    46 1   
    45    26    28 1   
    46    26    31 1   
    47    27    29 1   
    48    27    30 1   
    49    27    32 1   
    50    27    47 1   
    51    28    29 1   
    52    28    48 1   
    53    28    49 1   
    54    29    50 1   
    55    29    51 1   
    56    30    31 1   
    57    30    52 1   
    58    30    53 1   
    59    31    54 1   
    60    31    55 1   
    61    32    56 1   
    62    32    57 1   
    63    32    58 1   
    64    33    59 1   
    65    33    60 1   
    66    33    61 1   
    67    34    62 1   
    68    34    63 1   
    69    34    64 1   
    70    35    65 1   
    71    35    66 1   
    72    35    67 1   
@<TRIPOS>SUBSTRUCTURE
     1 MOL         1 TEMP              0 ****  ****    0 ROOT
