
                    3D
 Schrodinger Suite 2021-1.
 67 72  0  0  1  0            999 V2000
    8.6410   19.7810   13.5070 C   0  0  0  0  0  0
    8.6490   21.5550   10.9890 C   0  0  0  0  0  0
    9.8130   20.2380   12.8160 C   0  0  0  0  0  0
    9.8120   21.0870   11.6110 C   0  0  0  0  0  0
    7.4380   20.3100   12.8060 C   0  0  0  0  0  0
    7.4240   21.1590   11.6000 C   0  0  0  0  0  0
    8.6400   18.8920   14.7550 N   0  0  0  0  0  0
    8.7800   22.4150    9.7540 C   0  0  0  0  0  0
    9.6800   23.3220    7.8570 C   0  0  0  0  0  0
    8.4210   23.8690    8.1350 C   0  0  0  0  0  0
    7.8120   24.8950    7.2730 C   0  0  0  0  0  0
    8.5850   25.3090    6.1160 C   0  0  0  0  0  0
    9.8630   24.7370    5.8520 C   0  0  0  0  0  0
   10.4130   23.7570    6.7040 C   0  0  0  0  0  0
    9.8870   22.3810    8.9250 N   0  0  0  0  0  0
    7.9360   23.2970    9.2680 N   0  0  0  0  0  0
   10.5980   25.1720    4.6820 C   0  0  0  0  0  0
   12.1460   25.2370    3.0450 C   0  0  0  0  0  0
   11.2230   26.3030    2.9550 C   0  0  0  0  0  0
   11.2950   27.3040    1.9150 C   0  0  0  0  0  0
   12.3950   27.1610    0.9410 C   0  0  0  0  0  0
   13.3640   26.0450    1.0410 C   0  0  0  0  0  0
   11.7190   24.5250    4.1620 N   0  0  0  0  0  0
   10.3560   26.1950    3.9390 N   0  0  0  0  0  0
   13.2310   25.0970    2.0860 C   0  0  0  0  0  0
   14.4590   25.9380    0.0430 N   0  0  0  0  0  0
   16.7400   25.7450   -1.9400 N   0  3  0  0  0  0
   15.6800   24.9980    0.2470 C   0  0  0  0  0  0
   16.3020   24.5750   -1.1300 C   0  0  0  0  0  0
   15.5070   26.6710   -2.2230 C   0  0  0  0  0  0
   14.8740   27.1370   -0.8910 C   0  0  0  0  0  0
   17.2510   25.3750   -3.1930 C   0  0  0  0  0  0
    7.6300   18.2350   15.7080 C   0  0  0  0  0  0
    9.6370   18.1980   15.6900 C   0  0  0  0  0  0
    6.0480   21.5860   11.0430 C   0  0  0  0  0  0
   10.7935   19.9608   13.1740 H   0  0  0  0  0  0
   10.7806   21.3453   11.2092 H   0  0  0  0  0  0
    6.4508   20.0779   13.1776 H   0  0  0  0  0  0
    6.8400   25.2977    7.5169 H   0  0  0  0  0  0
    8.1926   26.0582    5.4444 H   0  0  0  0  0  0
   11.3835   23.3343    6.4900 H   0  0  0  0  0  0
   10.6549   21.7588    9.1332 H   0  0  0  0  0  0
   10.5669   28.1009    1.8812 H   0  0  0  0  0  0
   12.5029   27.8767    0.1394 H   0  0  0  0  0  0
   12.0707   23.6888    4.6060 H   0  0  0  0  0  0
   13.9268   24.2757    2.1739 H   0  0  0  0  0  0
   17.4409   26.2639   -1.4304 H   0  0  0  0  0  0
   15.3656   24.1079    0.7919 H   0  0  0  0  0  0
   16.4351   25.5085    0.8447 H   0  0  0  0  0  0
   17.1525   23.9158   -0.9562 H   0  0  0  0  0  0
   15.5714   23.9962   -1.6951 H   0  0  0  0  0  0
   14.7664   26.1218   -2.8044 H   0  0  0  0  0  0
   15.8299   27.5406   -2.7953 H   0  0  0  0  0  0
   15.5762   27.7816   -0.3623 H   0  0  0  0  0  0
   13.9989   27.7518   -1.1015 H   0  0  0  0  0  0
   17.5546   26.2675   -3.7401 H   0  0  0  0  0  0
   18.1133   24.7225   -3.0560 H   0  0  0  0  0  0
   16.4826   24.8471   -3.7578 H   0  0  0  0  0  0
    8.1648   17.6763   16.4761 H   0  0  0  0  0  0
    7.0195   19.0056   16.1787 H   0  0  0  0  0  0
    6.9881   17.5563   15.1463 H   0  0  0  0  0  0
    9.0935   17.6600   16.4667 H   0  0  0  0  0  0
   10.2434   17.4954   15.1184 H   0  0  0  0  0  0
   10.2840   18.9445   16.1507 H   0  0  0  0  0  0
    5.2576   21.1692   11.6672 H   0  0  0  0  0  0
    5.9763   22.6736   11.0448 H   0  0  0  0  0  0
    5.9378   21.2169   10.0234 H   0  0  0  0  0  0
  1  3  2  0  0  0
  1  5  1  0  0  0
  1  7  1  0  0  0
  2  4  2  0  0  0
  2  6  1  0  0  0
  2  8  1  0  0  0
  3  4  1  0  0  0
  3 36  1  0  0  0
  4 37  1  0  0  0
  5  6  2  0  0  0
  5 38  1  0  0  0
  6 35  1  0  0  0
  7 33  1  0  0  0
  7 34  1  0  0  0
  8 15  1  0  0  0
  8 16  2  0  0  0
  9 10  2  0  0  0
  9 14  1  0  0  0
  9 15  1  0  0  0
 10 11  1  0  0  0
 10 16  1  0  0  0
 11 12  2  0  0  0
 11 39  1  0  0  0
 12 13  1  0  0  0
 12 40  1  0  0  0
 13 14  2  0  0  0
 13 17  1  0  0  0
 14 41  1  0  0  0
 15 42  1  0  0  0
 17 23  1  0  0  0
 17 24  2  0  0  0
 18 19  2  0  0  0
 18 23  1  0  0  0
 18 25  1  0  0  0
 19 20  1  0  0  0
 19 24  1  0  0  0
 20 21  2  0  0  0
 20 43  1  0  0  0
 21 22  1  0  0  0
 21 44  1  0  0  0
 22 25  2  0  0  0
 22 26  1  0  0  0
 23 45  1  0  0  0
 25 46  1  0  0  0
 26 28  1  0  0  0
 26 31  1  0  0  0
 27 29  1  0  0  0
 27 30  1  0  0  0
 27 32  1  0  0  0
 27 47  1  0  0  0
 28 29  1  0  0  0
 28 48  1  0  0  0
 28 49  1  0  0  0
 29 50  1  0  0  0
 29 51  1  0  0  0
 30 31  1  0  0  0
 30 52  1  0  0  0
 30 53  1  0  0  0
 31 54  1  0  0  0
 31 55  1  0  0  0
 32 56  1  0  0  0
 32 57  1  0  0  0
 32 58  1  0  0  0
 33 59  1  0  0  0
 33 60  1  0  0  0
 33 61  1  0  0  0
 34 62  1  0  0  0
 34 63  1  0  0  0
 34 64  1  0  0  0
 35 65  1  0  0  0
 35 66  1  0  0  0
 35 67  1  0  0  0
M  CHG  1  27   1
M  END
> <s_pdb_PDB_format_version>
3.0

> <b_ppw_prepared>
1

> <s_ppw_prepared_with_version>
2021-1

> <s_ppw_het_states>
eJztmEFOxDAMRa9SdV1VsZO4CVdB3ACxYzXi7tiZ/DRihUBAacMC243nTxLPk9PcZpofpkf9o2VyT8v0yNX6akO1sVqpdqs2VZurJQcHigRJgiZBlKBKkCXoEoQJygxlbnOFMkOZocxQZiizKlNxoMxQ9lD2UPZtG6DsoeyLsnm2ZzrMZZbLFKu+uu2rlinUBHVlf5qq60sC1Q2WmqvWQ02lbA7NR7opxM7HZ3VNVoLmIz93+ZZg5dkDTK08ZaxJHcJ3FweLKQEWaQ77PmhpNrHcBXuaBW06luL6AJO2p1ZtRtmt4oTSmwC3oO2u7UTqAo+V2i/Aat4C7/qgSacuzVLuAhq5NW+iqbeZRLGhlaLOdOaggY0l/7ZML6/Pz/f/5Tfy/8GiS4LFHVgNoL8Bi3uwGj5nAotW54QLWLGAxZI1cQ5cIl+om4ONxZU094ycXbOBHYiz8zcw5YwldpxR3DuYDSbqqMsunpGza/azAx0UL9HPvEh3UORNqOtg3uUzkjU62Dgp/jhZUWwJrYNJtp2Y2d/7WQ5h72CZJYA6i2icG09D3ehnv0td5v7iY9t25phD6iiLfCTIaEB2jtZ2hZczCaG0tvo6JpISmllcM4VjXi+2ynyNrPE6NtrXj5OVN7vZuN2blKwux3BIlr7ZpT7DkhssDZa+zhKvPvrUjoKsJ0OrDcjSwctebQyyxvnve2SlTD1ZIu1ynlfO8qFnPb29A+g4/YA=

$$$$
