@<TRIPOS>MOLECULE
MOL
   79    84     1     0     0
SMALL
bcc


@<TRIPOS>ATOM
      1 C1           5.2520   -10.6520     3.6520 ca         1 MOL      -0.212900
      2 C2           5.1240   -10.8640     5.0130 ca         1 MOL      -0.041000
      3 C3           3.8940   -11.1910     5.5610 ca         1 MOL      -0.140000
      4 C4           2.7870   -11.3030     4.7220 ca         1 MOL      -0.124300
      5 C5           2.9210   -11.0900     3.3470 ca         1 MOL       0.294300
      6 C6           4.1620   -10.7650     2.8190 ca         1 MOL       0.321300
      7 N1           1.8070   -11.2160     2.5950 nb         1 MOL      -0.598000
      8 N2           4.2580   -10.5650     1.4680 nb         1 MOL      -0.671000
      9 C7           1.9470   -11.0100     1.2690 ca         1 MOL       0.307300
     10 C8           3.1520   -10.6850     0.6730 ca         1 MOL       0.324300
     11 C9           0.8040   -11.1350     0.4790 ca         1 MOL      -0.159300
     12 C10          0.8740   -10.9370    -0.9000 ca         1 MOL      -0.112000
     13 C11          2.0930   -10.6120    -1.4840 ca         1 MOL      -0.100000
     14 C12          3.2110   -10.4870    -0.7270 ca         1 MOL      -0.133600
     15 C13          4.5420   -10.1430    -1.3900 c3         1 MOL      -0.043800
     16 C14          6.6130   -10.2700     3.1290 c          1 MOL       0.693700
     17 O1           7.6150   -10.9270     3.4030 o          1 MOL      -0.664100
     18 N3           6.6670    -9.2110     2.3710 ns         1 MOL      -0.553900
     19 C15          7.7110    -8.1720     2.6130 c3         1 MOL       0.070000
     20 C16          7.7530    -7.3480     1.3210 c3         1 MOL       0.132800
     21 N4           6.5500    -6.4580     1.3730 n7         1 MOL      -0.858200
     22 C17          6.2280    -6.1430    -0.0600 c3         1 MOL       0.140800
     23 N5           3.9480    -2.1710    -2.0970 ns         1 MOL      -0.573900
     24 C18          3.1010    -1.3400    -2.6460 c          1 MOL       0.698700
     25 O2           3.4310    -0.5690    -3.5450 o          1 MOL      -0.652100
     26 C19          1.6910    -1.3780    -2.1100 ca         1 MOL      -0.217900
     27 C20          0.6490    -1.4350    -3.0190 ca         1 MOL      -0.029000
     28 C21         -0.6660    -1.5120    -2.5800 ca         1 MOL      -0.141000
     29 C22         -0.9210    -1.5290    -1.2080 ca         1 MOL      -0.116300
     30 C23          0.1370    -1.4690    -0.2950 ca         1 MOL       0.295300
     31 N6          -0.1790    -1.4900     1.0200 nb         1 MOL      -0.594000
     32 C24          0.8550    -1.4310     1.8890 ca         1 MOL       0.308300
     33 C25          2.1770    -1.3520     1.4910 ca         1 MOL       0.329300
     34 N7           2.4540    -1.3330     0.1550 nb         1 MOL      -0.675000
     35 C26          1.4420    -1.3930    -0.7600 ca         1 MOL       0.322300
     36 C27          3.2020    -1.2920     2.4620 ca         1 MOL      -0.134600
     37 C28          2.8950    -1.3140     3.7790 ca         1 MOL      -0.098000
     38 C29          1.5760    -1.4000     4.1960 ca         1 MOL      -0.112000
     39 C30          0.5540    -1.4540     3.2510 ca         1 MOL      -0.157300
     40 C31          4.6590    -1.2070     2.0210 c3         1 MOL      -0.046800
     41 C32          5.2220    -1.6670    -1.5020 c3         1 MOL       0.081000
     42 C33          6.2410    -2.8110    -1.6720 c3         1 MOL       0.093800
     43 N8           5.6380    -4.0250    -1.0250 ny         1 MOL      -0.747000
     44 C34          6.7690    -4.7290    -0.3500 c3         1 MOL       0.087800
     45 H1           5.9870   -10.7750     5.6570 ha         1 MOL       0.159000
     46 H2           3.8030   -11.3550     6.6250 ha         1 MOL       0.157000
     47 H3           1.8210   -11.5550     5.1330 ha         1 MOL       0.168000
     48 H4          -0.1420   -11.3860     0.9340 ha         1 MOL       0.165000
     49 H5          -0.0150   -11.0370    -1.5060 ha         1 MOL       0.153000
     50 H6           2.1560   -10.4560    -2.5510 ha         1 MOL       0.147000
     51 H7           4.3950   -10.0280    -2.4640 hc         1 MOL       0.045033
     52 H8           4.9250    -9.2110    -0.9750 hc         1 MOL       0.045033
     53 H9           5.2580   -10.9440    -1.2060 hc         1 MOL       0.045033
     54 H10          6.0020    -9.0930     1.6200 hn         1 MOL       0.334500
     55 H11          8.6750    -8.6570     2.7640 h1         1 MOL       0.057200
     56 H12          7.4000    -7.5330     3.4390 h1         1 MOL       0.057200
     57 H13          7.6720    -8.0160     0.4630 h1         1 MOL       0.068200
     58 H14          8.6550    -6.7370     1.3110 h1         1 MOL       0.068200
     59 H15          5.7890    -6.9450     1.8250 hn         1 MOL       0.391800
     60 H16          5.1470    -6.1530    -0.2000 h1         1 MOL       0.077700
     61 H17          6.7260    -6.8620    -0.7100 h1         1 MOL       0.077700
     62 H18          3.7430    -3.1600    -2.0740 hn         1 MOL       0.346500
     63 H19          0.8560    -1.4200    -4.0790 ha         1 MOL       0.160000
     64 H20         -1.4730    -1.5580    -3.2970 ha         1 MOL       0.161000
     65 H21         -1.9380    -1.5890    -0.8480 ha         1 MOL       0.171000
     66 H22          3.6810    -1.2640     4.5180 ha         1 MOL       0.147000
     67 H23          1.3430    -1.4250     5.2500 ha         1 MOL       0.154000
     68 H24         -0.4740    -1.5140     3.5760 ha         1 MOL       0.167000
     69 H25          5.3030    -1.1690     2.8990 hc         1 MOL       0.045367
     70 H26          4.9100    -2.0840     1.4240 hc         1 MOL       0.045367
     71 H27          4.8060    -0.3070     1.4240 hc         1 MOL       0.045367
     72 H28          5.0730    -1.4700    -0.4400 h1         1 MOL       0.075700
     73 H29          5.5610    -0.7940    -2.0600 h1         1 MOL       0.075700
     74 H30          7.1670    -2.5500    -1.1600 hx         1 MOL       0.114700
     75 H31          6.3950    -3.0050    -2.7340 hx         1 MOL       0.114700
     76 H32          5.2470    -4.6250    -1.7370 hn         1 MOL       0.465800
     77 H33          4.9620    -3.7350    -0.3330 hn         1 MOL       0.465800
     78 H34          7.6120    -4.7990    -1.0370 hx         1 MOL       0.118200
     79 H35          6.9950    -4.2290     0.5920 hx         1 MOL       0.118200
@<TRIPOS>BOND
     1     1     2 ar  
     2     1     6 ar  
     3     1    16 1   
     4     2     3 ar  
     5     2    45 1   
     6     3     4 ar  
     7     3    46 1   
     8     4     5 ar  
     9     4    47 1   
    10     5     6 ar  
    11     5     7 ar  
    12     6     8 ar  
    13     7     9 ar  
    14     8    10 ar  
    15     9    10 ar  
    16     9    11 ar  
    17    10    14 ar  
    18    11    12 ar  
    19    11    48 1   
    20    12    13 ar  
    21    12    49 1   
    22    13    14 ar  
    23    13    50 1   
    24    14    15 1   
    25    15    51 1   
    26    15    52 1   
    27    15    53 1   
    28    16    17 2   
    29    16    18 1   
    30    18    19 1   
    31    18    54 1   
    32    19    20 1   
    33    19    55 1   
    34    19    56 1   
    35    20    21 1   
    36    20    57 1   
    37    20    58 1   
    38    21    22 1   
    39    21    59 1   
    40    22    44 1   
    41    22    60 1   
    42    22    61 1   
    43    23    24 1   
    44    23    41 1   
    45    23    62 1   
    46    24    25 2   
    47    24    26 1   
    48    26    27 ar  
    49    26    35 ar  
    50    27    28 ar  
    51    27    63 1   
    52    28    29 ar  
    53    28    64 1   
    54    29    30 ar  
    55    29    65 1   
    56    30    31 ar  
    57    30    35 ar  
    58    31    32 ar  
    59    32    33 ar  
    60    32    39 ar  
    61    33    34 ar  
    62    33    36 ar  
    63    34    35 ar  
    64    36    37 ar  
    65    36    40 1   
    66    37    38 ar  
    67    37    66 1   
    68    38    39 ar  
    69    38    67 1   
    70    39    68 1   
    71    40    69 1   
    72    40    70 1   
    73    40    71 1   
    74    41    42 1   
    75    41    72 1   
    76    41    73 1   
    77    42    43 1   
    78    42    74 1   
    79    42    75 1   
    80    43    44 1   
    81    43    76 1   
    82    43    77 1   
    83    44    78 1   
    84    44    79 1   
@<TRIPOS>SUBSTRUCTURE
     1 MOL         1 TEMP              0 ****  ****    0 ROOT
