@<TRIPOS>MOLECULE
MOL
   79    84     1     0     0
SMALL
bcc


@<TRIPOS>ATOM
      1 C1          -1.7680     8.4280    -2.0370 ca         1 MOL      -0.226900
      2 C2          -3.1170     8.4060    -1.7290 ca         1 MOL      -0.022000
      3 C3          -3.5390     8.2950    -0.4120 ca         1 MOL      -0.139000
      4 C4          -2.5860     8.2060     0.5980 ca         1 MOL      -0.114300
      5 C5          -1.2250     8.2290     0.2860 ca         1 MOL       0.297300
      6 C6          -0.8200     8.3410    -1.0380 ca         1 MOL       0.328300
      7 N1          -0.3630     8.1380     1.3190 nb         1 MOL      -0.584000
      8 N2           0.5250     8.3610    -1.3020 nb         1 MOL      -0.706000
      9 C7           0.9490     8.1610     1.0140 ca         1 MOL       0.306300
     10 C8           1.4290     8.2710    -0.2780 ca         1 MOL       0.333300
     11 C9           1.8470     8.0670     2.0750 ca         1 MOL      -0.145300
     12 C10          3.2210     8.0840     1.8390 ca         1 MOL      -0.117000
     13 C11          3.6910     8.1980     0.5350 ca         1 MOL      -0.078000
     14 C12          2.8270     8.2890    -0.5060 ca         1 MOL      -0.156600
     15 C13          3.3620     8.4210    -1.9300 c3         1 MOL      -0.040800
     16 C14         -1.3890     8.5370    -3.4950 c          1 MOL       0.693700
     17 O1          -0.5100     7.8300    -3.9830 o          1 MOL      -0.636100
     18 N3          -2.0410     9.4140    -4.2100 ns         1 MOL      -0.579900
     19 C15         -1.4880     9.8650    -5.5190 c3         1 MOL       0.083000
     20 C16         -0.0650    10.3390    -5.2080 c3         1 MOL       0.089800
     21 N4          -0.2250    11.5240    -4.3130 ny         1 MOL      -0.755000
     22 C17         -0.7760    12.6200    -5.1810 c3         1 MOL       0.039800
     23 N5          -3.2610    16.7020    -5.6210 ns         1 MOL      -0.569900
     24 C18         -2.9840    17.7900    -4.9530 c          1 MOL       0.687700
     25 O2          -3.8090    18.6900    -4.8120 o          1 MOL      -0.574100
     26 C19         -1.5990    17.8920    -4.3610 ca         1 MOL      -0.184900
     27 C20         -0.5300    17.9170    -5.2390 ca         1 MOL      -0.067000
     28 C21          0.7700    17.9970    -4.7650 ca         1 MOL      -0.137000
     29 C22          0.9870    18.0530    -3.3900 ca         1 MOL      -0.138300
     30 C23         -0.0940    18.0280    -2.5050 ca         1 MOL       0.295300
     31 N6           0.1950    18.0850    -1.1880 nb         1 MOL      -0.610000
     32 C24         -0.8540    18.0600    -0.3380 ca         1 MOL       0.309300
     33 C25         -2.1700    17.9820    -0.7570 ca         1 MOL       0.316300
     34 N7          -2.4230    17.9260    -2.1010 nb         1 MOL      -0.637000
     35 C26         -1.3890    17.9480    -3.0000 ca         1 MOL       0.312300
     36 C27         -3.2110    17.9610     0.2020 ca         1 MOL      -0.115600
     37 C28         -2.9220    18.0170     1.5260 ca         1 MOL      -0.116000
     38 C29         -1.6040    18.0950     1.9620 ca         1 MOL      -0.108000
     39 C30         -0.5700    18.1170     1.0260 ca         1 MOL      -0.171300
     40 C31         -4.6640    17.8760    -0.2540 c3         1 MOL      -0.050800
     41 C32         -3.5140    15.4250    -4.8940 c3         1 MOL       0.102000
     42 C33         -2.1600    15.0480    -4.2830 c3         1 MOL       0.140800
     43 N8          -2.3480    13.6880    -3.6930 n7         1 MOL      -0.823200
     44 C34         -2.2710    12.7320    -4.8380 c3         1 MOL       0.172800
     45 H1          -3.8520     8.4760    -2.5170 ha         1 MOL       0.163000
     46 H2          -4.5940     8.2790    -0.1830 ha         1 MOL       0.165000
     47 H3          -2.8980     8.1190     1.6280 ha         1 MOL       0.175000
     48 H4           1.4800     7.9800     3.0870 ha         1 MOL       0.172000
     49 H5           3.9120     8.0090     2.6660 ha         1 MOL       0.159000
     50 H6           4.7540     8.2150     0.3440 ha         1 MOL       0.150000
     51 H7           4.4520     8.4170    -1.9110 hc         1 MOL       0.037033
     52 H8           3.0060     7.5840    -2.5310 hc         1 MOL       0.037033
     53 H9           3.0100     9.3560    -2.3650 hc         1 MOL       0.037033
     54 H10         -2.9190     9.7860    -3.8760 hn         1 MOL       0.346500
     55 H11         -2.0760    10.7050    -5.8900 h1         1 MOL       0.082200
     56 H12         -1.4450     9.0180    -6.2040 h1         1 MOL       0.082200
     57 H13          0.4240    10.6470    -6.1320 hx         1 MOL       0.112200
     58 H14          0.4700     9.5530    -4.6750 hx         1 MOL       0.112200
     59 H15          0.6790    11.8000    -3.9580 hn         1 MOL       0.469800
     60 H16         -0.8900    11.3070    -3.5850 hn         1 MOL       0.469800
     61 H17         -0.6650    12.3420    -6.2290 hx         1 MOL       0.103200
     62 H18         -0.2780    13.5590    -4.9390 hx         1 MOL       0.103200
     63 H19         -3.3040    16.7260    -6.6300 hn         1 MOL       0.319500
     64 H20         -0.7050    17.8740    -6.3040 ha         1 MOL       0.153000
     65 H21          1.5980    18.0150    -5.4590 ha         1 MOL       0.150000
     66 H22          1.9940    18.1160    -3.0040 ha         1 MOL       0.163000
     67 H23         -3.7200    18.0010     2.2540 ha         1 MOL       0.146000
     68 H24         -1.3870    18.1380     3.0190 ha         1 MOL       0.148000
     69 H25          0.4550    18.1780     1.3620 ha         1 MOL       0.160000
     70 H26         -5.3190    17.8710     0.6170 hc         1 MOL       0.052700
     71 H27         -4.9000    18.7360    -0.8800 hc         1 MOL       0.052700
     72 H28         -4.8130    16.9600    -0.8250 hc         1 MOL       0.052700
     73 H29         -3.8150    14.6570    -5.6070 h1         1 MOL       0.061200
     74 H30         -4.2340    15.6010    -4.0950 h1         1 MOL       0.061200
     75 H31         -1.9110    15.7550    -3.4910 h1         1 MOL       0.038200
     76 H32         -1.4080    15.0000    -5.0710 h1         1 MOL       0.038200
     77 H33         -1.6180    13.5100    -3.0180 hn         1 MOL       0.387800
     78 H34         -2.6430    11.7580    -4.5210 h1         1 MOL       0.067700
     79 H35         -2.8080    13.1460    -5.6910 h1         1 MOL       0.067700
@<TRIPOS>BOND
     1     1     2 ar  
     2     1     6 ar  
     3     1    16 1   
     4     2     3 ar  
     5     2    45 1   
     6     3     4 ar  
     7     3    46 1   
     8     4     5 ar  
     9     4    47 1   
    10     5     6 ar  
    11     5     7 ar  
    12     6     8 ar  
    13     7     9 ar  
    14     8    10 ar  
    15     9    10 ar  
    16     9    11 ar  
    17    10    14 ar  
    18    11    12 ar  
    19    11    48 1   
    20    12    13 ar  
    21    12    49 1   
    22    13    14 ar  
    23    13    50 1   
    24    14    15 1   
    25    15    51 1   
    26    15    52 1   
    27    15    53 1   
    28    16    17 2   
    29    16    18 1   
    30    18    19 1   
    31    18    54 1   
    32    19    20 1   
    33    19    55 1   
    34    19    56 1   
    35    20    21 1   
    36    20    57 1   
    37    20    58 1   
    38    21    22 1   
    39    21    59 1   
    40    21    60 1   
    41    22    44 1   
    42    22    61 1   
    43    22    62 1   
    44    23    24 1   
    45    23    41 1   
    46    23    63 1   
    47    24    25 2   
    48    24    26 1   
    49    26    27 ar  
    50    26    35 ar  
    51    27    28 ar  
    52    27    64 1   
    53    28    29 ar  
    54    28    65 1   
    55    29    30 ar  
    56    29    66 1   
    57    30    31 ar  
    58    30    35 ar  
    59    31    32 ar  
    60    32    33 ar  
    61    32    39 ar  
    62    33    34 ar  
    63    33    36 ar  
    64    34    35 ar  
    65    36    37 ar  
    66    36    40 1   
    67    37    38 ar  
    68    37    67 1   
    69    38    39 ar  
    70    38    68 1   
    71    39    69 1   
    72    40    70 1   
    73    40    71 1   
    74    40    72 1   
    75    41    42 1   
    76    41    73 1   
    77    41    74 1   
    78    42    43 1   
    79    42    75 1   
    80    42    76 1   
    81    43    44 1   
    82    43    77 1   
    83    44    78 1   
    84    44    79 1   
@<TRIPOS>SUBSTRUCTURE
     1 MOL         1 TEMP              0 ****  ****    0 ROOT
