
                    3D
 Schrodinger Suite 2021-1.
 53 57  0  0  1  0            999 V2000
   30.8000   26.5500   33.5700 C   0  0  0  0  0  0
   31.8400   27.3200   32.9700 C   0  0  0  0  0  0
   32.3900   27.0100   31.7300 C   0  0  0  0  0  0
   31.8700   25.9300   30.9500 C   0  0  0  0  0  0
   30.7800   25.2100   31.5200 C   0  0  0  0  0  0
   30.3300   25.4200   32.8500 C   0  0  0  0  0  0
   31.7200   28.1700   35.0500 C   0  0  0  0  0  0
   32.0800   28.5900   36.3200 C   0  0  0  0  0  0
   32.6400   29.8500   36.7300 C   0  0  0  0  0  0
   35.9700   36.9400   42.7700 C   0  0  0  0  0  0
   35.6500   37.2700   41.4700 C   0  0  0  0  0  0
   35.8700   38.5900   40.9600 C   0  0  0  0  0  0
   36.5300   39.5000   41.8300 C   0  0  0  0  0  0
   36.9500   39.0900   43.1100 C   0  0  0  0  0  0
   36.7700   37.7500   43.5600 C   0  0  0  0  0  0
   35.0800   35.0200   41.5200 C   0  0  0  0  0  0
   34.3800   33.8400   41.2000 C   0  0  0  0  0  0
   34.1400   33.2700   39.9000 C   0  0  0  0  0  0
   33.3900   31.0500   40.7900 C   0  0  0  0  0  0
   33.6200   31.9200   39.6700 C   0  0  0  0  0  0
   33.4300   31.4600   38.3600 C   0  0  0  0  0  0
   32.9400   30.2100   38.0600 C   0  0  0  0  0  0
   32.9100   29.3000   39.1300 C   0  0  0  0  0  0
   33.0300   29.7600   40.4700 C   0  0  0  0  0  0
   32.6400   28.0600   39.0500 O   0  0  0  0  0  0
   35.6900   35.2800   43.1600 S   0  0  0  0  0  0
   30.3600   26.9900   35.1900 S   0  0  0  0  0  0
   35.0200   36.2000   40.7600 N   0  0  0  0  0  0
   32.3500   28.3000   33.8100 N   0  0  0  0  0  0
   34.8100   36.4200   39.3200 C   0  0  0  0  0  0
   33.6600   29.0100   33.4600 C   0  0  0  0  0  0
   33.2185   27.5874   31.3471 H   0  0  0  0  0  0
   32.3035   25.7013   29.9876 H   0  0  0  0  0  0
   30.2582   24.4675   30.9345 H   0  0  0  0  0  0
   29.6386   24.7328   33.3149 H   0  0  0  0  0  0
   31.9486   27.9298   37.1646 H   0  0  0  0  0  0
   32.8630   30.6072   35.9929 H   0  0  0  0  0  0
   35.5395   38.8462   39.9642 H   0  0  0  0  0  0
   36.7132   40.5155   41.5112 H   0  0  0  0  0  0
   37.4210   39.7977   43.7762 H   0  0  0  0  0  0
   37.2165   37.3546   44.4604 H   0  0  0  0  0  0
   33.9435   33.2411   41.9857 H   0  0  0  0  0  0
   34.3457   33.8475   39.0108 H   0  0  0  0  0  0
   33.5032   31.4243   41.7967 H   0  0  0  0  0  0
   33.6722   32.0982   37.5231 H   0  0  0  0  0  0
   32.8243   29.0465   41.2542 H   0  0  0  0  0  0
   32.6878   27.6646   39.9235 H   0  0  0  0  0  0
   34.3262   35.5454   38.8851 H   0  0  0  0  0  0
   34.1767   37.2951   39.1742 H   0  0  0  0  0  0
   35.7714   36.5827   38.8328 H   0  0  0  0  0  0
   33.8958   29.7407   34.2336 H   0  0  0  0  0  0
   34.4647   28.2777   33.3953 H   0  0  0  0  0  0
   33.5537   29.5179   32.5014 H   0  0  0  0  0  0
  1  2  2  0  0  0
  1  6  1  0  0  0
  1 27  1  0  0  0
  2  3  1  0  0  0
  2 29  1  0  0  0
  3  4  2  0  0  0
  3 32  1  0  0  0
  4  5  1  0  0  0
  4 33  1  0  0  0
  5  6  2  0  0  0
  5 34  1  0  0  0
  6 35  1  0  0  0
  7  8  1  0  0  0
  7 27  1  0  0  0
  7 29  2  0  0  0
  8  9  2  0  0  0
  8 36  1  0  0  0
  9 22  1  0  0  0
  9 37  1  0  0  0
 10 11  2  0  0  0
 10 15  1  0  0  0
 10 26  1  0  0  0
 11 12  1  0  0  0
 11 28  1  0  0  0
 12 13  2  0  0  0
 12 38  1  0  0  0
 13 14  1  0  0  0
 13 39  1  0  0  0
 14 15  2  0  0  0
 14 40  1  0  0  0
 15 41  1  0  0  0
 16 17  1  0  0  0
 16 26  1  0  0  0
 16 28  2  0  0  0
 17 18  2  0  0  0
 17 42  1  0  0  0
 18 20  1  0  0  0
 18 43  1  0  0  0
 19 20  2  0  0  0
 19 24  1  0  0  0
 19 44  1  0  0  0
 20 21  1  0  0  0
 21 22  2  0  0  0
 21 45  1  0  0  0
 22 23  1  0  0  0
 23 24  2  0  0  0
 23 25  1  0  0  0
 24 46  1  0  0  0
 25 47  1  0  0  0
 28 30  1  0  0  0
 29 31  1  0  0  0
 30 48  1  0  0  0
 30 49  1  0  0  0
 30 50  1  0  0  0
 31 51  1  0  0  0
 31 52  1  0  0  0
 31 53  1  0  0  0
M  END
> <i_pdb_PDB_Model>
1

> <s_pdb_PDB_format_version>
3.0

> <b_ppw_prepared>
1

> <s_ppw_prepared_with_version>
2021-1

> <s_ppw_het_states>
eJxNkUFuwzAMBL9i5OwW3pUdJ/1K4B8EvfUU5O8VJY5iH7xcShpS1Ouiy8/0qJ/maTnm6eHUkrqmbqnX1D31lnpP1UIAUSAFU0AFVWAFV4AF2ZA9eoVsyIZsyIZsyIZsyAVyaeSIYh6V7tbBPFWIMgyOclLlEwZMObg1D1bdMrs1hnNyt8zuJ9zeGc6hEoaa6rXPGKuH2U4rHk3WLfLJmHotWwBE9ysra6eZ1xB9hfmgr51m3krDRLCw7d6Nh6FOywqjfjnzmB4DLf2Mh+GmUb1QJwZWGq26r+W75l/vefr9ez77/zje/43pmrM=

$$$$
