@<TRIPOS>MOLECULE
MOL
   53    57     1     0     0
SMALL
bcc


@<TRIPOS>ATOM
      1 C1          30.8000    26.5500    33.5700 ca         1 MOL      -0.102100
      2 C2          31.8400    27.3200    32.9700 ca         1 MOL      -0.005200
      3 C3          32.3900    27.0100    31.7300 ca         1 MOL      -0.141000
      4 C4          31.8700    25.9300    30.9500 ca         1 MOL      -0.091000
      5 C5          30.7800    25.2100    31.5200 ca         1 MOL      -0.142000
      6 C6          30.3300    25.4200    32.8500 ca         1 MOL      -0.064000
      7 C7          31.7200    28.1700    35.0500 cc         1 MOL       0.246500
      8 C8          32.0800    28.5900    36.3200 ce         1 MOL      -0.309600
      9 C9          32.6400    29.8500    36.7300 cf         1 MOL      -0.005200
     10 C10         35.9700    36.9400    42.7700 ca         1 MOL      -0.054100
     11 C11         35.6500    37.2700    41.4700 ca         1 MOL      -0.011200
     12 C12         35.8700    38.5900    40.9600 ca         1 MOL      -0.152000
     13 C13         36.5300    39.5000    41.8300 ca         1 MOL      -0.111000
     14 C14         36.9500    39.0900    43.1100 ca         1 MOL      -0.155000
     15 C15         36.7700    37.7500    43.5600 ca         1 MOL      -0.087000
     16 C16         35.0800    35.0200    41.5200 cc         1 MOL       0.118500
     17 C17         34.3800    33.8400    41.2000 ce         1 MOL      -0.168600
     18 C18         34.1400    33.2700    39.9000 cf         1 MOL      -0.275200
     19 C19         33.3900    31.0500    40.7900 ca         1 MOL       0.008000
     20 C20         33.6200    31.9200    39.6700 ca         1 MOL       0.011200
     21 C21         33.4300    31.4600    38.3600 ca         1 MOL      -0.301000
     22 C22         32.9400    30.2100    38.0600 ca         1 MOL      -0.062800
     23 C23         32.9100    29.3000    39.1300 ca         1 MOL       0.196100
     24 C24         33.0300    29.7600    40.4700 ca         1 MOL      -0.264000
     25 O1          32.6400    28.0600    39.0500 oh         1 MOL      -0.487100
     26 S1          35.6900    35.2800    43.1600 ss         1 MOL      -0.127100
     27 S2          30.3600    26.9900    35.1900 ss         1 MOL       0.029900
     28 N1          35.0200    36.2000    40.7600 na         1 MOL      -0.143200
     29 N2          32.3500    28.3000    33.8100 na         1 MOL      -0.159200
     30 C25         34.8100    36.4200    39.3200 c3         1 MOL       0.003600
     31 C26         33.6600    29.0100    33.4600 c3         1 MOL       0.017600
     32 H1          33.2180    27.5870    31.3470 ha         1 MOL       0.147000
     33 H2          32.3030    25.7010    29.9880 ha         1 MOL       0.143000
     34 H3          30.2580    24.4680    30.9340 ha         1 MOL       0.144000
     35 H4          29.6390    24.7330    33.3150 ha         1 MOL       0.147000
     36 H5          31.9490    27.9300    37.1650 ha         1 MOL       0.168000
     37 H6          32.8630    30.6070    35.9930 ha         1 MOL       0.125000
     38 H7          35.5390    38.8460    39.9640 ha         1 MOL       0.136000
     39 H8          36.7130    40.5160    41.5110 ha         1 MOL       0.127000
     40 H9          37.4210    39.7980    43.7760 ha         1 MOL       0.129000
     41 H10         37.2170    37.3550    44.4600 ha         1 MOL       0.136000
     42 H11         33.9440    33.2410    41.9860 ha         1 MOL       0.112000
     43 H12         34.3460    33.8470    39.0110 ha         1 MOL       0.123000
     44 H13         33.5030    31.4240    41.7970 ha         1 MOL       0.137000
     45 H14         33.6720    32.0980    37.5230 ha         1 MOL       0.126000
     46 H15         32.8240    29.0470    41.2540 ha         1 MOL       0.131000
     47 H16         32.6880    27.6650    39.9230 ho         1 MOL       0.430000
     48 H17         34.3260    35.5450    38.8850 h1         1 MOL       0.045033
     49 H18         34.1770    37.2950    39.1740 h1         1 MOL       0.045033
     50 H19         35.7710    36.5830    38.8330 h1         1 MOL       0.045033
     51 H20         33.8960    29.7410    34.2340 h1         1 MOL       0.063700
     52 H21         34.4650    28.2780    33.3950 h1         1 MOL       0.063700
     53 H22         33.5540    29.5180    32.5010 h1         1 MOL       0.063700
@<TRIPOS>BOND
     1     1     2 ar  
     2     1     6 ar  
     3     1    27 1   
     4     2     3 ar  
     5     2    29 1   
     6     3     4 ar  
     7     3    32 1   
     8     4     5 ar  
     9     4    33 1   
    10     5     6 ar  
    11     5    34 1   
    12     6    35 1   
    13     7     8 1   
    14     7    27 1   
    15     7    29 2   
    16     8     9 2   
    17     8    36 1   
    18     9    22 1   
    19     9    37 1   
    20    10    11 ar  
    21    10    15 ar  
    22    10    26 1   
    23    11    12 ar  
    24    11    28 1   
    25    12    13 ar  
    26    12    38 1   
    27    13    14 ar  
    28    13    39 1   
    29    14    15 ar  
    30    14    40 1   
    31    15    41 1   
    32    16    17 1   
    33    16    26 1   
    34    16    28 2   
    35    17    18 2   
    36    17    42 1   
    37    18    20 1   
    38    18    43 1   
    39    19    20 ar  
    40    19    24 ar  
    41    19    44 1   
    42    20    21 ar  
    43    21    22 ar  
    44    21    45 1   
    45    22    23 ar  
    46    23    24 ar  
    47    23    25 1   
    48    24    46 1   
    49    25    47 1   
    50    28    30 1   
    51    29    31 1   
    52    30    48 1   
    53    30    49 1   
    54    30    50 1   
    55    31    51 1   
    56    31    52 1   
    57    31    53 1   
@<TRIPOS>SUBSTRUCTURE
     1 MOL         1 TEMP              0 ****  ****    0 ROOT
