
                    3D
 Schrodinger Suite 2021-1.
 63 68  0  0  1  0            999 V2000
   10.6570   18.0600   16.8560 C   0  0  0  0  0  0
   11.1220   17.6870   17.9920 O   0  0  0  0  0  0
   11.6360   18.3720   15.8540 C   0  0  0  0  0  0
   11.1430   18.7950   14.6120 C   0  0  0  0  0  0
    9.7680   18.9270   14.3060 C   0  0  0  0  0  0
    8.7820   18.5820   15.3220 C   0  0  0  0  0  0
    9.2550   18.1630   16.5910 C   0  0  0  0  0  0
    9.3860   19.7850   13.2630 C   0  0  0  0  0  0
   10.2230   20.5280   12.3730 N   0  0  0  0  0  0
    9.3390   21.2350   11.4900 C   0  0  0  0  0  0
    7.9290   20.9470   11.8150 C   0  0  0  0  0  0
    8.0370   20.0480   12.9180 N   0  0  0  0  0  0
    6.9120   21.5630   11.0780 C   0  0  0  0  0  0
    7.2510   22.4300   10.0420 C   0  0  0  0  0  0
    8.6180   22.7460    9.7700 C   0  0  0  0  0  0
    9.6860   22.0770   10.4870 C   0  0  0  0  0  0
    9.0130   23.5180    8.7270 C   0  0  0  0  0  0
   10.2690   23.4110    7.9960 N   0  0  0  0  0  0
   10.2260   24.3020    6.9270 C   0  0  0  0  0  0
    8.9100   24.9720    6.9870 C   0  0  0  0  0  0
    8.2170   24.4790    8.0630 N   0  0  0  0  0  0
    8.5560   25.9200    6.1040 C   0  0  0  0  0  0
    9.4940   26.2900    5.0610 C   0  0  0  0  0  0
   10.7440   25.6330    4.9940 C   0  0  0  0  0  0
   11.1190   24.6100    5.9440 C   0  0  0  0  0  0
   11.6280   25.9200    4.0250 N   0  0  0  0  0  0
   11.3580   27.0660    3.1810 C   0  0  0  0  0  0
   12.6710   27.5460    2.7160 C   0  0  0  0  0  0
   13.4620   26.4990    2.1390 N   0  3  0  0  0  0
   13.0410   25.1320    2.2050 C   0  0  0  0  0  0
   12.2570   24.8110    3.3340 C   0  0  0  0  0  0
   13.6030   26.8650    0.8240 C   0  0  0  0  0  0
   12.4290   17.9210   18.6030 C   0  0  0  0  0  0
   12.4420   17.2390   19.9780 C   0  0  0  0  0  0
   12.6880   18.2752   16.0783 H   0  0  0  0  0  0
   11.8284   19.0441   13.8154 H   0  0  0  0  0  0
    7.7280   18.6497   15.0966 H   0  0  0  0  0  0
    8.5402   17.9199   17.3632 H   0  0  0  0  0  0
   11.2277   20.4736   12.4611 H   0  0  0  0  0  0
    5.8772   21.3642   11.3148 H   0  0  0  0  0  0
    6.4766   22.8724    9.4329 H   0  0  0  0  0  0
   10.7277   22.2300   10.2465 H   0  0  0  0  0  0
   10.9799   22.7638    8.3056 H   0  0  0  0  0  0
    7.5876   26.3923    6.1780 H   0  0  0  0  0  0
    9.2336   27.0586    4.3483 H   0  0  0  0  0  0
   12.0673   24.0955    5.8954 H   0  0  0  0  0  0
   10.8761   27.8451    3.7716 H   0  0  0  0  0  0
   10.7629   26.7519    2.3235 H   0  0  0  0  0  0
   13.2115   27.9897    3.5521 H   0  0  0  0  0  0
   12.5278   28.3386    1.9816 H   0  0  0  0  0  0
   14.3777   26.5496    2.5622 H   0  0  0  0  0  0
   13.9163   24.4831    2.1772 H   0  0  0  0  0  0
   12.4894   24.8801    1.2992 H   0  0  0  0  0  0
   11.4938   24.0877    3.0470 H   0  0  0  0  0  0
   12.8620   24.2440    4.0415 H   0  0  0  0  0  0
   14.1986   26.1174    0.3001 H   0  0  0  0  0  0
   12.6198   26.9367    0.3588 H   0  0  0  0  0  0
   14.1027   27.8320    0.7670 H   0  0  0  0  0  0
   12.5846   18.9926   18.7279 H   0  0  0  0  0  0
   13.2064   17.4861   17.9748 H   0  0  0  0  0  0
   13.4089   17.3998   20.4548 H   0  0  0  0  0  0
   11.6550   17.6628   20.6018 H   0  0  0  0  0  0
   12.2713   16.1695   19.8553 H   0  0  0  0  0  0
  1  2  1  0  0  0
  1  3  2  0  0  0
  1  7  1  0  0  0
  2 33  1  0  0  0
  3  4  1  0  0  0
  3 35  1  0  0  0
  4  5  2  0  0  0
  4 36  1  0  0  0
  5  6  1  0  0  0
  5  8  1  0  0  0
  6  7  2  0  0  0
  6 37  1  0  0  0
  7 38  1  0  0  0
  8  9  1  0  0  0
  8 12  2  0  0  0
  9 10  1  0  0  0
  9 39  1  0  0  0
 10 11  2  0  0  0
 10 16  1  0  0  0
 11 12  1  0  0  0
 11 13  1  0  0  0
 13 14  2  0  0  0
 13 40  1  0  0  0
 14 15  1  0  0  0
 14 41  1  0  0  0
 15 16  2  0  0  0
 15 17  1  0  0  0
 16 42  1  0  0  0
 17 18  1  0  0  0
 17 21  2  0  0  0
 18 19  1  0  0  0
 18 43  1  0  0  0
 19 20  2  0  0  0
 19 25  1  0  0  0
 20 21  1  0  0  0
 20 22  1  0  0  0
 22 23  2  0  0  0
 22 44  1  0  0  0
 23 24  1  0  0  0
 23 45  1  0  0  0
 24 25  2  0  0  0
 24 26  1  0  0  0
 25 46  1  0  0  0
 26 27  1  0  0  0
 26 31  1  0  0  0
 27 28  1  0  0  0
 27 47  1  0  0  0
 27 48  1  0  0  0
 28 29  1  0  0  0
 28 49  1  0  0  0
 28 50  1  0  0  0
 29 30  1  0  0  0
 29 32  1  0  0  0
 29 51  1  0  0  0
 30 31  1  0  0  0
 30 52  1  0  0  0
 30 53  1  0  0  0
 31 54  1  0  0  0
 31 55  1  0  0  0
 32 56  1  0  0  0
 32 57  1  0  0  0
 32 58  1  0  0  0
 33 34  1  0  0  0
 33 59  1  0  0  0
 33 60  1  0  0  0
 34 61  1  0  0  0
 34 62  1  0  0  0
 34 63  1  0  0  0
M  CHG  1  29   1
M  END
> <s_pdb_PDB_format_version>
3.0

> <b_ppw_prepared>
1

> <s_ppw_prepared_with_version>
2021-1

> <s_ppw_het_states>
eJztmE1u3DAMha8y8HpgiE//vUqQGwTddRXk7hVlPo2KougmndQzyiIkJeuZlvKBVN432b5dXtqPXC/u9Xp5gVlvNpiNZpPZbLaYrWbF0aGiUFKoKRQVqgplhbpCYaEyqIyRK5VBZVAZVAaVQWVQGU1Z+rdS2VPZj22gsu/K6ulWwVY2tz0Ac7ONtlldJ7aPwdxmoz3cbLLR5hZzU5eAbSuz01nYsI45vlsd4ds1oKSOCuaA2XQncI0mFjkTDwGMgF/TnTIFGC/VUaapjh4RRkDpPipzwNzUATewO9wrdcDd6gE/Th3kKfBDWnNjouqMA1bHuzlgBjo6BPTQfM+gRW6vMbXgfRM0RmSX7Fq4QYnRydh0Nl/7nJfQ3rcFf0Suysf18v3H29vxu//ZnA2xcUIPjRjdwctC7J6I1VwUsYMi5DIoCnvGI1D0HIVqUfR1FMnuXLpBJEV35yhTOhXjVJhiyedH6jkK0+r9vhQpFJl6P1QXb91ecDVPdSpWf36oVp26O1SYoZIngCr6EG6FKrenNil2t0JdDJ2Dof+qMD0fQymkqTDlXNINIzhdxjJV4e9/gRonuqA6LVRP1+0Vqb0w2aWphDgwSrsrefxXAlqpHgCqdYVaUP1bqBopqWSFyjCKQfM4MIp7zancHaNPb/g+CyO3MFoY/QGjdmcqo+HDnlwGaxP2jDRBVbxft6gF1YLq71CligmqWHTV0f5hR46/IJbTrf37rft7/fgJ+a3h1g==

$$$$
