@<TRIPOS>MOLECULE
MOL
   63    68     1     0     0
SMALL
bcc


@<TRIPOS>ATOM
      1 C1          10.6570    18.0600    16.8560 ca         1 MOL       0.159100
      2 O1          11.1220    17.6870    17.9920 os         1 MOL      -0.322900
      3 C2          11.6360    18.3720    15.8540 ca         1 MOL      -0.189500
      4 C3          11.1430    18.7950    14.6120 ca         1 MOL      -0.059500
      5 C4           9.7680    18.9270    14.3060 ca         1 MOL      -0.174900
      6 C5           8.7820    18.5820    15.3220 ca         1 MOL      -0.059500
      7 C6           9.2550    18.1630    16.5910 ca         1 MOL      -0.189500
      8 C7           9.3860    19.7850    13.2630 cc         1 MOL       0.508400
      9 N1          10.2230    20.5280    12.3730 na         1 MOL      -0.284300
     10 C8           9.3390    21.2350    11.4900 ca         1 MOL      -0.083200
     11 C9           7.9290    20.9470    11.8150 ca         1 MOL       0.101400
     12 N2           8.0370    20.0480    12.9180 nd         1 MOL      -0.564100
     13 C10          6.9120    21.5630    11.0780 ca         1 MOL      -0.075000
     14 C11          7.2510    22.4300    10.0420 ca         1 MOL      -0.105000
     15 C12          8.6180    22.7460     9.7700 ca         1 MOL      -0.129900
     16 C13          9.6860    22.0770    10.4870 ca         1 MOL      -0.114000
     17 C14          9.0130    23.5180     8.7270 cc         1 MOL       0.511400
     18 N3          10.2690    23.4110     7.9960 na         1 MOL      -0.277300
     19 C15         10.2260    24.3020     6.9270 ca         1 MOL      -0.081200
     20 C16          8.9100    24.9720     6.9870 ca         1 MOL       0.093400
     21 N4           8.2170    24.4790     8.0630 nd         1 MOL      -0.554100
     22 C17          8.5560    25.9200     6.1040 ca         1 MOL      -0.054000
     23 C18          9.4940    26.2900     5.0610 ca         1 MOL      -0.178000
     24 C19         10.7440    25.6330     4.9940 ca         1 MOL       0.046600
     25 C20         11.1190    24.6100     5.9440 ca         1 MOL      -0.090000
     26 N5          11.6280    25.9200     4.0250 nh         1 MOL      -0.622000
     27 C21         11.3580    27.0660     3.1810 c3         1 MOL       0.143800
     28 C22         12.6710    27.5460     2.7160 c3         1 MOL       0.104800
     29 N6          13.4620    26.4990     2.1390 nx         1 MOL      -0.676400
     30 C23         13.0410    25.1320     2.2050 c3         1 MOL       0.104800
     31 C24         12.2570    24.8110     3.3340 c3         1 MOL       0.143800
     32 C25         13.6030    26.8650     0.8240 c3         1 MOL       0.083100
     33 C26         12.4290    17.9210    18.6030 c3         1 MOL       0.127400
     34 C27         12.4420    17.2390    19.9780 c3         1 MOL      -0.102100
     35 H1          12.6880    18.2750    16.0780 ha         1 MOL       0.152000
     36 H2          11.8280    19.0440    13.8150 ha         1 MOL       0.144500
     37 H3           7.7280    18.6500    15.0970 ha         1 MOL       0.144500
     38 H4           8.5400    17.9200    17.3630 ha         1 MOL       0.152000
     39 H5          11.2280    20.4740    12.4610 hn         1 MOL       0.308700
     40 H6           5.8770    21.3640    11.3150 ha         1 MOL       0.162000
     41 H7           6.4770    22.8720     9.4330 ha         1 MOL       0.157000
     42 H8          10.7280    22.2300    10.2460 ha         1 MOL       0.132000
     43 H9          10.9800    22.7640     8.3060 hn         1 MOL       0.313700
     44 H10          7.5880    26.3920     6.1780 ha         1 MOL       0.164000
     45 H11          9.2340    27.0590     4.3480 ha         1 MOL       0.126000
     46 H12         12.0670    24.0960     5.8950 ha         1 MOL       0.146000
     47 H13         10.8760    27.8450     3.7720 h1         1 MOL       0.083700
     48 H14         10.7630    26.7520     2.3240 h1         1 MOL       0.083700
     49 H15         13.2110    27.9900     3.5520 hx         1 MOL       0.102700
     50 H16         12.5280    28.3390     1.9820 hx         1 MOL       0.102700
     51 H17         14.3780    26.5500     2.5620 hn         1 MOL       0.458800
     52 H18         13.9160    24.4830     2.1770 hx         1 MOL       0.102700
     53 H19         12.4890    24.8800     1.2990 hx         1 MOL       0.102700
     54 H20         11.4940    24.0880     3.0470 h1         1 MOL       0.083700
     55 H21         12.8620    24.2440     4.0420 h1         1 MOL       0.083700
     56 H22         14.1990    26.1170     0.3000 hx         1 MOL       0.104033
     57 H23         12.6200    26.9370     0.3590 hx         1 MOL       0.104033
     58 H24         14.1030    27.8320     0.7670 hx         1 MOL       0.104033
     59 H25         12.5850    18.9930    18.7280 h1         1 MOL       0.040200
     60 H26         13.2060    17.4860    17.9750 h1         1 MOL       0.040200
     61 H27         13.4090    17.4000    20.4550 hc         1 MOL       0.053367
     62 H28         11.6550    17.6630    20.6020 hc         1 MOL       0.053367
     63 H29         12.2710    16.1690    19.8550 hc         1 MOL       0.053367
@<TRIPOS>BOND
     1     1     2 1   
     2     1     3 ar  
     3     1     7 ar  
     4     2    33 1   
     5     3     4 ar  
     6     3    35 1   
     7     4     5 ar  
     8     4    36 1   
     9     5     6 ar  
    10     5     8 1   
    11     6     7 ar  
    12     6    37 1   
    13     7    38 1   
    14     8     9 1   
    15     8    12 2   
    16     9    10 1   
    17     9    39 1   
    18    10    11 ar  
    19    10    16 ar  
    20    11    12 1   
    21    11    13 ar  
    22    13    14 ar  
    23    13    40 1   
    24    14    15 ar  
    25    14    41 1   
    26    15    16 ar  
    27    15    17 1   
    28    16    42 1   
    29    17    18 1   
    30    17    21 2   
    31    18    19 1   
    32    18    43 1   
    33    19    20 ar  
    34    19    25 ar  
    35    20    21 1   
    36    20    22 ar  
    37    22    23 ar  
    38    22    44 1   
    39    23    24 ar  
    40    23    45 1   
    41    24    25 ar  
    42    24    26 1   
    43    25    46 1   
    44    26    27 1   
    45    26    31 1   
    46    27    28 1   
    47    27    47 1   
    48    27    48 1   
    49    28    29 1   
    50    28    49 1   
    51    28    50 1   
    52    29    30 1   
    53    29    32 1   
    54    29    51 1   
    55    30    31 1   
    56    30    52 1   
    57    30    53 1   
    58    31    54 1   
    59    31    55 1   
    60    32    56 1   
    61    32    57 1   
    62    32    58 1   
    63    33    34 1   
    64    33    59 1   
    65    33    60 1   
    66    34    61 1   
    67    34    62 1   
    68    34    63 1   
@<TRIPOS>SUBSTRUCTURE
     1 MOL         1 TEMP              0 ****  ****    0 ROOT
