@<TRIPOS>MOLECULE
MOL
   59    60     1     0     0
SMALL
bcc


@<TRIPOS>ATOM
      1 C1          10.4360    24.6040     9.6670 cz         1 MOL       0.530300
      2 N1          11.0170    23.4340     9.4340 nv         1 MOL      -0.519600
      3 N2          10.9300    25.7240     9.1270 nv         1 MOL      -0.503700
      4 N3           9.3570    24.7430    10.4200 nu         1 MOL      -0.381200
      5 C2           8.4340    23.6410    10.6560 c3         1 MOL      -0.060700
      6 C3           7.2910    24.1920    11.4270 c          1 MOL       0.654100
      7 O1           7.2320    25.5500    11.6770 o          1 MOL      -0.594100
      8 N4           6.4150    23.3520    11.8630 ns         1 MOL      -0.405100
      9 C4           5.3250    23.7710    12.5540 cc         1 MOL      -0.075400
     10 C5           4.6180    22.9280    13.3320 cc         1 MOL      -0.169000
     11 C6           3.5790    23.6160    13.8810 cd         1 MOL      -0.171900
     12 N5           3.6590    24.8800    13.4240 na         1 MOL       0.003900
     13 C7           2.7530    26.0400    13.7160 c3         1 MOL       0.009600
     14 C8           4.7150    25.0100    12.6130 cd         1 MOL      -0.112300
     15 C9           2.4870    23.0080    14.6060 c          1 MOL       0.708700
     16 O2           1.3150    23.7510    14.6380 o          1 MOL      -0.605100
     17 N6           2.6000    21.8480    15.1930 ns         1 MOL      -0.437100
     18 C10          1.5770    21.2120    15.8950 cc         1 MOL      -0.030400
     19 C11          1.8160    20.2260    16.8010 cc         1 MOL      -0.161000
     20 C12          0.5900    19.8160    17.3060 cd         1 MOL      -0.216900
     21 N7          -0.3920    20.5170    16.6940 na         1 MOL       0.004900
     22 C13         -1.8820    20.3740    16.9010 c3         1 MOL       0.013600
     23 C14          0.1840    21.3850    15.8270 cd         1 MOL      -0.105300
     24 C15          0.4600    18.6470    18.1830 c          1 MOL       0.733700
     25 O3          -0.7050    17.9490    18.1590 o          1 MOL      -0.691100
     26 N8           1.4360    18.2420    18.9820 ns         1 MOL      -0.574900
     27 C16          1.2810    17.0750    19.8470 c3         1 MOL       0.110000
     28 C17          1.4670    15.8030    19.0560 c3         1 MOL      -0.193700
     29 C18          1.3790    14.5800    19.9390 c2         1 MOL       0.448800
     30 N9           0.1580    14.0710    20.1330 nv         1 MOL      -0.467100
     31 N10          2.4210    14.0170    20.4920 nv         1 MOL      -0.451200
     32 H1          10.6390    22.5920     9.8450 hn         1 MOL       0.329700
     33 H2          11.8370    23.3860     8.8460 hn         1 MOL       0.329700
     34 H3          10.4830    26.6120     9.3080 hn         1 MOL       0.329700
     35 H4          11.7500    25.6820     8.5380 hn         1 MOL       0.329700
     36 H5           9.1530    25.6330    10.8510 hn         1 MOL       0.353700
     37 H6           8.9320    22.8710    11.2460 h1         1 MOL       0.084200
     38 H7           8.0760    23.2570     9.7010 h1         1 MOL       0.084200
     39 H8           6.5340    22.3640    11.6920 hn         1 MOL       0.329500
     40 H9           4.9230    21.8960    13.4270 ha         1 MOL       0.153000
     41 H10          3.1070    26.9210    13.1810 h1         1 MOL       0.076700
     42 H11          1.7400    25.8010    13.3920 h1         1 MOL       0.076700
     43 H12          2.7530    26.2410    14.7870 h1         1 MOL       0.076700
     44 H13          5.1240    25.8400    12.0560 h4         1 MOL       0.209000
     45 H14          3.4760    21.3470    15.1570 hn         1 MOL       0.326500
     46 H15          2.8290    19.9100    17.0010 ha         1 MOL       0.150000
     47 H16         -2.4080    21.0820    16.2600 h1         1 MOL       0.071700
     48 H17         -2.1890    19.3590    16.6480 h1         1 MOL       0.071700
     49 H18         -2.1260    20.5780    17.9440 h1         1 MOL       0.071700
     50 H19         -0.2370    22.1200    15.1560 h4         1 MOL       0.220000
     51 H20          2.3120    18.7430    19.0030 hn         1 MOL       0.336500
     52 H21          0.2860    17.0830    20.2930 h1         1 MOL       0.073200
     53 H22          2.0200    17.1160    20.6480 h1         1 MOL       0.073200
     54 H23          2.4370    15.8230    18.5600 hc         1 MOL       0.108700
     55 H24          0.7050    15.7450    18.2790 hc         1 MOL       0.108700
     56 H25          0.0380    13.2540    20.7140 hn         1 MOL       0.333700
     57 H26         -0.6440    14.5040    19.6980 hn         1 MOL       0.333700
     58 H27          2.3040    13.2000    21.0740 hn         1 MOL       0.333700
     59 H28          3.3430    14.3990    20.3370 hn         1 MOL       0.333700
@<TRIPOS>BOND
     1     1     2 2   
     2     1     3 1   
     3     1     4 1   
     4     2    32 1   
     5     2    33 1   
     6     3    34 1   
     7     3    35 1   
     8     4     5 1   
     9     4    36 1   
    10     5     6 1   
    11     5    37 1   
    12     5    38 1   
    13     6     7 2   
    14     6     8 1   
    15     8     9 1   
    16     8    39 1   
    17     9    10 1   
    18     9    14 2   
    19    10    11 2   
    20    10    40 1   
    21    11    12 1   
    22    11    15 1   
    23    12    13 1   
    24    12    14 1   
    25    13    41 1   
    26    13    42 1   
    27    13    43 1   
    28    14    44 1   
    29    15    16 2   
    30    15    17 1   
    31    17    18 1   
    32    17    45 1   
    33    18    19 1   
    34    18    23 2   
    35    19    20 2   
    36    19    46 1   
    37    20    21 1   
    38    20    24 1   
    39    21    22 1   
    40    21    23 1   
    41    22    47 1   
    42    22    48 1   
    43    22    49 1   
    44    23    50 1   
    45    24    25 2   
    46    24    26 1   
    47    26    27 1   
    48    26    51 1   
    49    27    28 1   
    50    27    52 1   
    51    27    53 1   
    52    28    29 1   
    53    28    54 1   
    54    28    55 1   
    55    29    30 2   
    56    29    31 1   
    57    30    56 1   
    58    30    57 1   
    59    31    58 1   
    60    31    59 1   
@<TRIPOS>SUBSTRUCTURE
     1 MOL         1 TEMP              0 ****  ****    0 ROOT
