
                    3D
 Schrodinger Suite 2021-1.
 59 60  0  0  1  0            999 V2000
   10.4360   24.6040    9.6670 C   0  0  0  0  0  0
   11.0170   23.4340    9.4340 N   0  3  0  0  0  0
   10.9300   25.7240    9.1270 N   0  0  0  0  0  0
    9.3570   24.7430   10.4200 N   0  0  0  0  0  0
    8.4340   23.6410   10.6560 C   0  0  0  0  0  0
    7.2910   24.1920   11.4270 C   0  0  0  0  0  0
    7.2320   25.5500   11.6770 O   0  0  0  0  0  0
    6.4150   23.3520   11.8630 N   0  0  0  0  0  0
    5.3250   23.7710   12.5540 C   0  0  0  0  0  0
    4.6180   22.9280   13.3320 C   0  0  0  0  0  0
    3.5790   23.6160   13.8810 C   0  0  0  0  0  0
    3.6590   24.8800   13.4240 N   0  0  0  0  0  0
    2.7530   26.0400   13.7160 C   0  0  0  0  0  0
    4.7150   25.0100   12.6130 C   0  0  0  0  0  0
    2.4870   23.0080   14.6060 C   0  0  0  0  0  0
    1.3150   23.7510   14.6380 O   0  0  0  0  0  0
    2.6000   21.8480   15.1930 N   0  0  0  0  0  0
    1.5770   21.2120   15.8950 C   0  0  0  0  0  0
    1.8160   20.2260   16.8010 C   0  0  0  0  0  0
    0.5900   19.8160   17.3060 C   0  0  0  0  0  0
   -0.3920   20.5170   16.6940 N   0  0  0  0  0  0
   -1.8820   20.3740   16.9010 C   0  0  0  0  0  0
    0.1840   21.3850   15.8270 C   0  0  0  0  0  0
    0.4600   18.6470   18.1830 C   0  0  0  0  0  0
   -0.7050   17.9490   18.1590 O   0  0  0  0  0  0
    1.4360   18.2420   18.9820 N   0  0  0  0  0  0
    1.2810   17.0750   19.8470 C   0  0  0  0  0  0
    1.4670   15.8030   19.0560 C   0  0  0  0  0  0
    1.3790   14.5800   19.9390 C   0  0  0  0  0  0
    0.1580   14.0710   20.1330 N   0  3  0  0  0  0
    2.4210   14.0170   20.4920 N   0  0  0  0  0  0
   10.6394   22.5920    9.8445 H   0  0  0  0  0  0
   11.8369   23.3855    8.8461 H   0  0  0  0  0  0
   10.4833   26.6116    9.3081 H   0  0  0  0  0  0
   11.7496   25.6819    8.5383 H   0  0  0  0  0  0
    9.1533   25.6334   10.8510 H   0  0  0  0  0  0
    8.9317   22.8712   11.2458 H   0  0  0  0  0  0
    8.0756   23.2574    9.7008 H   0  0  0  0  0  0
    6.5341   22.3637   11.6919 H   0  0  0  0  0  0
    4.9231   21.8963   13.4267 H   0  0  0  0  0  0
    3.1065   26.9214   13.1811 H   0  0  0  0  0  0
    1.7400   25.8010   13.3921 H   0  0  0  0  0  0
    2.7534   26.2413   14.7872 H   0  0  0  0  0  0
    5.1237   25.8402   12.0561 H   0  0  0  0  0  0
    3.4762   21.3469   15.1567 H   0  0  0  0  0  0
    2.8293   19.9101   17.0006 H   0  0  0  0  0  0
   -2.4079   21.0819   16.2604 H   0  0  0  0  0  0
   -2.1887   19.3590   16.6485 H   0  0  0  0  0  0
   -2.1257   20.5779   17.9437 H   0  0  0  0  0  0
   -0.2368   22.1196   15.1564 H   0  0  0  0  0  0
    2.3125   18.7433   19.0027 H   0  0  0  0  0  0
    0.2863   17.0831   20.2928 H   0  0  0  0  0  0
    2.0196   17.1159   20.6476 H   0  0  0  0  0  0
    2.4373   15.8231   18.5598 H   0  0  0  0  0  0
    0.7052   15.7446   18.2786 H   0  0  0  0  0  0
    0.0381   13.2537   20.7141 H   0  0  0  0  0  0
   -0.6444   14.5038   19.6984 H   0  0  0  0  0  0
    2.3041   13.1999   21.0741 H   0  0  0  0  0  0
    3.3431   14.3991   20.3372 H   0  0  0  0  0  0
  1  2  2  0  0  0
  1  3  1  0  0  0
  1  4  1  0  0  0
  2 32  1  0  0  0
  2 33  1  0  0  0
  3 34  1  0  0  0
  3 35  1  0  0  0
  4  5  1  0  0  0
  4 36  1  0  0  0
  5  6  1  0  0  0
  5 37  1  0  0  0
  5 38  1  0  0  0
  6  7  2  0  0  0
  6  8  1  0  0  0
  8  9  1  0  0  0
  8 39  1  0  0  0
  9 10  1  0  0  0
  9 14  2  0  0  0
 10 11  2  0  0  0
 10 40  1  0  0  0
 11 12  1  0  0  0
 11 15  1  0  0  0
 12 13  1  0  0  0
 12 14  1  0  0  0
 13 41  1  0  0  0
 13 42  1  0  0  0
 13 43  1  0  0  0
 14 44  1  0  0  0
 15 16  2  0  0  0
 15 17  1  0  0  0
 17 18  1  0  0  0
 17 45  1  0  0  0
 18 19  1  0  0  0
 18 23  2  0  0  0
 19 20  2  0  0  0
 19 46  1  0  0  0
 20 21  1  0  0  0
 20 24  1  0  0  0
 21 22  1  0  0  0
 21 23  1  0  0  0
 22 47  1  0  0  0
 22 48  1  0  0  0
 22 49  1  0  0  0
 23 50  1  0  0  0
 24 25  2  0  0  0
 24 26  1  0  0  0
 26 27  1  0  0  0
 26 51  1  0  0  0
 27 28  1  0  0  0
 27 52  1  0  0  0
 27 53  1  0  0  0
 28 29  1  0  0  0
 28 54  1  0  0  0
 28 55  1  0  0  0
 29 30  2  0  0  0
 29 31  1  0  0  0
 30 56  1  0  0  0
 30 57  1  0  0  0
 31 58  1  0  0  0
 31 59  1  0  0  0
M  CHG  2   2   1  30   1
M  END
> <s_pdb_PDB_format_version>
3.0

> <b_ppw_prepared>
1

> <s_ppw_prepared_with_version>
2021-1

> <s_ppw_het_states>
eJxNkksOwjAQQ68SZR1Qxkl/XKXqDRA7Voi7Mw7jqiywPYQXM/STLT/S7i8rqR4l7SjJqC1yD51C59AldA3dQq3KiGiQEdMENVFNWBPXBDaRITLOriJDZIgMkSEyRIbIELlV/ehBpuM+nI7RoKQWB9z2sK5TWNc5rOsSX3O7xtR1C0utF991CYem4Mb0T4ygq8a0XYP6jCOzAAyLPqFRlWG2S+DuoEVzx9CyuWc7g+7hFLgG1eER7h1n0FZooDo0UB0aqA5NOxswjAaebvXu809uqz+u7mv1Brl3Jb8sT9UTD35Ler2fz//7cXx/mK6aLA==

$$$$
