
                    3D
 Schrodinger Suite 2021-1.
 57 61  0  0  1  0            999 V2000
    0.4910    5.0680   -2.2700 N   0  0  0  0  0  0
   -1.8390    4.9830   -0.8590 N   0  0  0  0  0  0
    2.8560    5.4480   -2.5250 C   0  0  0  0  0  0
    2.9600    5.7910   -1.1650 C   0  0  0  0  0  0
   -0.7090    5.3180   -0.1290 C   0  0  0  0  0  0
    1.4540    4.6510   -4.5110 C   0  0  0  0  0  0
   -3.1880    4.7920   -0.4630 C   0  0  0  0  0  0
   -3.7380    5.4130    0.6710 C   0  0  0  0  0  0
   -4.0020    3.9810   -1.2650 C   0  0  0  0  0  0
   -8.0490    3.3600   -0.2740 C   0  0  0  0  0  0
   -6.1570    2.9780   -1.7480 C   0  0  0  0  0  0
   -1.7930    2.8720   -8.3210 C   0  0  0  0  0  0
    0.2390    3.6260   -7.2390 C   0  0  0  0  0  0
   -3.8760    2.8050   -7.0370 C   0  0  0  0  0  0
   -3.8680    2.0890   -9.3570 C   0  0  0  0  0  0
   -5.6100    5.9190    2.2190 C   0  0  0  0  0  0
    1.8010    5.7500   -0.3700 C   0  0  0  0  0  0
    0.5720    5.3800   -0.9520 C   0  0  0  0  0  0
    1.6030    5.0820   -3.0540 C   0  0  0  0  0  0
   -0.7530    5.5320    1.0740 O   0  0  0  0  0  0
    0.1460    4.3450   -4.8540 N   0  0  0  0  0  0
    2.3900    4.5700   -5.2950 O   0  0  0  0  0  0
   -0.4600    3.8500   -6.0390 C   0  0  0  0  0  0
   -5.0780    5.2220    1.0330 N   0  0  0  0  0  0
   -5.8870    4.3900    0.2330 C   0  0  0  0  0  0
   -5.3460    3.7790   -0.9220 C   0  0  0  0  0  0
   -7.2470    4.1690    0.5490 C   0  0  0  0  0  0
   -7.5060    2.7660   -1.4240 C   0  0  0  0  0  0
   -1.8350    3.5800   -5.9870 C   0  0  0  0  0  0
   -2.5000    3.0870   -7.1170 C   0  0  0  0  0  0
   -0.4150    3.1590   -8.3890 N   0  0  0  0  0  0
   -4.5600    2.3050   -8.1550 C   0  0  0  0  0  0
   -2.4930    2.3700   -9.4420 C   0  0  0  0  0  0
    0.3400    3.0280   -9.6500 C   0  0  0  0  0  0
   -1.7702    4.8319   -1.8553 H   0  0  0  0  0  0
    3.7329    5.4665   -3.1552 H   0  0  0  0  0  0
    3.9157    6.0781   -0.7521 H   0  0  0  0  0  0
   -3.1246    6.0547    1.2862 H   0  0  0  0  0  0
   -3.5939    3.5113   -2.1478 H   0  0  0  0  0  0
   -9.0860    3.1939   -0.0223 H   0  0  0  0  0  0
   -5.7417    2.5236   -2.6354 H   0  0  0  0  0  0
    1.3014    3.8138   -7.2882 H   0  0  0  0  0  0
   -4.4089    2.9734   -6.1128 H   0  0  0  0  0  0
   -4.3918    1.7058  -10.2203 H   0  0  0  0  0  0
   -6.6599    5.6588    2.3535 H   0  0  0  0  0  0
   -5.0456    5.6179    3.1016 H   0  0  0  0  0  0
   -5.5182    6.9961    2.0797 H   0  0  0  0  0  0
    1.8565    6.0010    0.6789 H   0  0  0  0  0  0
   -0.5955    4.4706   -4.1798 H   0  0  0  0  0  0
   -7.6687    4.6277    1.4311 H   0  0  0  0  0  0
   -8.1259    2.1479   -2.0565 H   0  0  0  0  0  0
   -2.3849    3.7521   -5.0736 H   0  0  0  0  0  0
   -5.6158    2.0875   -8.0893 H   0  0  0  0  0  0
   -1.9716    2.1997  -10.3723 H   0  0  0  0  0  0
    1.3824    3.2973   -9.4796 H   0  0  0  0  0  0
    0.2843    1.9979  -10.0021 H   0  0  0  0  0  0
   -0.0882    3.6918  -10.4011 H   0  0  0  0  0  0
  1 18  2  0  0  0
  1 19  1  0  0  0
  2  5  1  0  0  0
  2  7  1  0  0  0
  2 35  1  0  0  0
  3  4  1  0  0  0
  3 19  2  0  0  0
  3 36  1  0  0  0
  4 17  2  0  0  0
  4 37  1  0  0  0
  5 18  1  0  0  0
  5 20  2  0  0  0
  6 19  1  0  0  0
  6 21  1  0  0  0
  6 22  2  0  0  0
  7  8  2  0  0  0
  7  9  1  0  0  0
  8 24  1  0  0  0
  8 38  1  0  0  0
  9 26  2  0  0  0
  9 39  1  0  0  0
 10 27  2  0  0  0
 10 28  1  0  0  0
 10 40  1  0  0  0
 11 26  1  0  0  0
 11 28  2  0  0  0
 11 41  1  0  0  0
 12 30  1  0  0  0
 12 31  2  0  0  0
 12 33  1  0  0  0
 13 23  2  0  0  0
 13 31  1  0  0  0
 13 42  1  0  0  0
 14 30  1  0  0  0
 14 32  2  0  0  0
 14 43  1  0  0  0
 15 32  1  0  0  0
 15 33  2  0  0  0
 15 44  1  0  0  0
 16 24  1  0  0  0
 16 45  1  0  0  0
 16 46  1  0  0  0
 16 47  1  0  0  0
 17 18  1  0  0  0
 17 48  1  0  0  0
 21 23  1  0  0  0
 21 49  1  0  0  0
 23 29  1  0  0  0
 24 25  2  0  0  0
 25 26  1  0  0  0
 25 27  1  0  0  0
 27 50  1  0  0  0
 28 51  1  0  0  0
 29 30  2  0  0  0
 29 52  1  0  0  0
 31 34  1  0  0  0
 32 53  1  0  0  0
 33 54  1  0  0  0
 34 55  1  0  0  0
 34 56  1  0  0  0
 34 57  1  0  0  0
M  END
> <i_pdb_PDB_Model>
1

> <s_pdb_PDB_format_version>
3.0

> <b_ppw_prepared>
1

> <s_ppw_prepared_with_version>
2021-1

> <s_ppw_het_states>
eJxNk02SwlAIhK+SyjpjhSZ/ehUrN7Bm58ry7kO/oXlxIU1CfUCjn9HGx/CMj03DfE7DExk945Jxzbhl3DMeGe8ZbZYQ0YQ0MU1QE9WENXFNYBMZIqNmFRkiQ2SIDJEhMkSGyC6yi+xlg8jeyFS0itOhTRc6MJbWrV3uKQOwdMlipK/cFektgZaaiyK9Lnho7l0aWROMo0tV85G6suOmcYner4n68lws60mtGK3okFVi1zeuNyF4ByhxjctzdwATDc/7M7FKCrBdNqBRZRBdgJq2huV/1PPu0A+g9mmJDsJ6l8Uc0lufyH7mWzz/tP9EyJmzjr62bNmOmGBc7pV9p+H3/Xr9f5/n9w/QF69M

$$$$
