@<TRIPOS>MOLECULE
MOL
   57    61     1     0     0
SMALL
bcc


@<TRIPOS>ATOM
      1 N1           0.4910     5.0680    -2.2700 nb         1 MOL      -0.658000
      2 N2          -1.8390     4.9830    -0.8590 ns         1 MOL      -0.431100
      3 C1           2.8560     5.4480    -2.5250 ca         1 MOL      -0.169300
      4 C2           2.9600     5.7910    -1.1650 ca         1 MOL      -0.109000
      5 C3          -0.7090     5.3180    -0.1290 c          1 MOL       0.572600
      6 C4           1.4540     4.6510    -4.5110 c          1 MOL       0.572600
      7 C5          -3.1880     4.7920    -0.4630 ca         1 MOL       0.037600
      8 C6          -3.7380     5.4130     0.6710 ca         1 MOL      -0.110300
      9 C7          -4.0020     3.9810    -1.2650 ca         1 MOL      -0.250000
     10 C8          -8.0490     3.3600    -0.2740 ca         1 MOL      -0.130000
     11 C9          -6.1570     2.9780    -1.7480 ca         1 MOL      -0.159000
     12 C10         -1.7930     2.8720    -8.3210 ca         1 MOL       0.022700
     13 C11          0.2390     3.6260    -7.2390 ca         1 MOL      -0.110300
     14 C12         -3.8760     2.8050    -7.0370 ca         1 MOL      -0.159000
     15 C13         -3.8680     2.0890    -9.3570 ca         1 MOL      -0.130000
     16 C14         -5.6100     5.9190     2.2190 c3         1 MOL       0.018600
     17 C15          1.8010     5.7500    -0.3700 ca         1 MOL      -0.169300
     18 C16          0.5720     5.3800    -0.9520 ca         1 MOL       0.352800
     19 C17          1.6030     5.0820    -3.0540 ca         1 MOL       0.352800
     20 O1          -0.7530     5.5320     1.0740 o          1 MOL      -0.599100
     21 N3           0.1460     4.3450    -4.8540 ns         1 MOL      -0.431100
     22 O2           2.3900     4.5700    -5.2950 o          1 MOL      -0.599100
     23 C18         -0.4600     3.8500    -6.0390 ca         1 MOL       0.037600
     24 N4          -5.0780     5.2220     1.0330 na         1 MOL      -0.084100
     25 C19         -5.8870     4.3900     0.2330 ca         1 MOL       0.022700
     26 C20         -5.3460     3.7790    -0.9220 ca         1 MOL       0.017000
     27 C21         -7.2470     4.1690     0.5490 ca         1 MOL      -0.181000
     28 C22         -7.5060     2.7660    -1.4240 ca         1 MOL      -0.123000
     29 C23         -1.8350     3.5800    -5.9870 ca         1 MOL      -0.250000
     30 C24         -2.5000     3.0870    -7.1170 ca         1 MOL       0.017000
     31 N5          -0.4150     3.1590    -8.3890 na         1 MOL      -0.084100
     32 C25         -4.5600     2.3050    -8.1550 ca         1 MOL      -0.123000
     33 C26         -2.4930     2.3700    -9.4420 ca         1 MOL      -0.181000
     34 C27          0.3400     3.0280    -9.6500 c3         1 MOL       0.018600
     35 H1          -1.7700     4.8320    -1.8550 hn         1 MOL       0.335500
     36 H2           3.7330     5.4660    -3.1550 ha         1 MOL       0.173000
     37 H3           3.9160     6.0780    -0.7520 ha         1 MOL       0.153000
     38 H4          -3.1250     6.0550     1.2860 h4         1 MOL       0.190000
     39 H5          -3.5940     3.5110    -2.1480 ha         1 MOL       0.139000
     40 H6          -9.0860     3.1940    -0.0220 ha         1 MOL       0.130000
     41 H7          -5.7420     2.5240    -2.6350 ha         1 MOL       0.134000
     42 H8           1.3010     3.8140    -7.2880 h4         1 MOL       0.190000
     43 H9          -4.4090     2.9730    -6.1130 ha         1 MOL       0.134000
     44 H10         -4.3920     1.7060   -10.2200 ha         1 MOL       0.130000
     45 H11         -6.6600     5.6590     2.3530 h1         1 MOL       0.053033
     46 H12         -5.0460     5.6180     3.1020 h1         1 MOL       0.053033
     47 H13         -5.5180     6.9960     2.0800 h1         1 MOL       0.053033
     48 H14          1.8570     6.0010     0.6790 ha         1 MOL       0.173000
     49 H15         -0.5960     4.4710    -4.1800 hn         1 MOL       0.335500
     50 H16         -7.6690     4.6280     1.4310 ha         1 MOL       0.130000
     51 H17         -8.1260     2.1480    -2.0570 ha         1 MOL       0.130000
     52 H18         -2.3850     3.7520    -5.0740 ha         1 MOL       0.139000
     53 H19         -5.6160     2.0870    -8.0890 ha         1 MOL       0.130000
     54 H20         -1.9720     2.2000   -10.3720 ha         1 MOL       0.130000
     55 H21          1.3820     3.2970    -9.4800 h1         1 MOL       0.053033
     56 H22          0.2840     1.9980   -10.0020 h1         1 MOL       0.053033
     57 H23         -0.0880     3.6920   -10.4010 h1         1 MOL       0.053033
@<TRIPOS>BOND
     1     1    18 ar  
     2     1    19 ar  
     3     2     5 1   
     4     2     7 1   
     5     2    35 1   
     6     3     4 ar  
     7     3    19 ar  
     8     3    36 1   
     9     4    17 ar  
    10     4    37 1   
    11     5    18 1   
    12     5    20 2   
    13     6    19 1   
    14     6    21 1   
    15     6    22 2   
    16     7     8 ar  
    17     7     9 ar  
    18     8    24 2   
    19     8    38 1   
    20     9    26 ar  
    21     9    39 1   
    22    10    27 ar  
    23    10    28 ar  
    24    10    40 1   
    25    11    26 ar  
    26    11    28 ar  
    27    11    41 1   
    28    12    30 ar  
    29    12    31 1   
    30    12    33 ar  
    31    13    23 ar  
    32    13    31 2   
    33    13    42 1   
    34    14    30 ar  
    35    14    32 ar  
    36    14    43 1   
    37    15    32 ar  
    38    15    33 ar  
    39    15    44 1   
    40    16    24 1   
    41    16    45 1   
    42    16    46 1   
    43    16    47 1   
    44    17    18 ar  
    45    17    48 1   
    46    21    23 1   
    47    21    49 1   
    48    23    29 ar  
    49    24    25 1   
    50    25    26 ar  
    51    25    27 ar  
    52    27    50 1   
    53    28    51 1   
    54    29    30 ar  
    55    29    52 1   
    56    31    34 1   
    57    32    53 1   
    58    33    54 1   
    59    34    55 1   
    60    34    56 1   
    61    34    57 1   
@<TRIPOS>SUBSTRUCTURE
     1 MOL         1 TEMP              0 ****  ****    0 ROOT
