
                    3D
 Schrodinger Suite 2021-1.
 44 43  0  0  1  0            999 V2000
   -4.8690    9.6290   28.9150 N   0  3  0  0  0  0
   -6.0970    9.8240   28.1760 C   0  0  0  0  0  0
   -6.6480    8.4740   27.8290 C   0  0  0  0  0  0
   -7.8810    8.5350   26.9680 C   0  0  0  0  0  0
   -7.6630    7.4260   26.0840 N   0  3  0  0  0  0
   -8.8640    6.9170   25.4860 C   0  0  0  0  0  0
   -8.4410    5.6150   24.8610 C   0  0  0  0  0  0
   -9.0760    5.4940   23.5110 C   0  0  0  0  0  0
   -8.0420    4.9390   22.5600 C   0  0  0  0  0  0
   -8.0780    5.7480   21.3620 N   0  3  0  0  0  0
   -7.2490    5.1380   20.3490 C   0  0  0  0  0  0
   -7.2310    6.0080   19.1080 C   0  0  0  0  0  0
   -6.8220    5.1530   17.9200 C   0  0  0  0  0  0
   -6.6110    5.9700   16.7450 N   0  3  0  0  0  0
   -4.4773   10.5269   29.1610 H   0  0  0  0  0  0
   -5.0615    9.1043   29.7563 H   0  0  0  0  0  0
   -4.2095    9.1194   28.3445 H   0  0  0  0  0  0
   -5.8857   10.3760   27.2602 H   0  0  0  0  0  0
   -6.8139   10.3595   28.7984 H   0  0  0  0  0  0
   -6.8733    7.9287   28.7455 H   0  0  0  0  0  0
   -5.8807    7.8896   27.3212 H   0  0  0  0  0  0
   -7.8689    9.4598   26.3912 H   0  0  0  0  0  0
   -8.7576    8.3343   27.5840 H   0  0  0  0  0  0
   -7.1982    6.6833   26.5865 H   0  0  0  0  0  0
   -7.0166    7.6988   25.3575 H   0  0  0  0  0  0
   -9.1960    7.6010   24.7050 H   0  0  0  0  0  0
   -9.5999    6.7206   26.2657 H   0  0  0  0  0  0
   -8.7667    4.7872   25.4909 H   0  0  0  0  0  0
   -7.3563    5.5988   24.7548 H   0  0  0  0  0  0
   -9.3917    6.4796   23.1689 H   0  0  0  0  0  0
   -9.9216    4.8086   23.5679 H   0  0  0  0  0  0
   -8.2953    3.9088   22.3097 H   0  0  0  0  0  0
   -7.0546    5.0100   23.0161 H   0  0  0  0  0  0
   -7.7294    6.6728   21.5700 H   0  0  0  0  0  0
   -9.0286    5.8100   21.0264 H   0  0  0  0  0  0
   -7.6472    4.1550   20.0975 H   0  0  0  0  0  0
   -6.2336    5.0269   20.7293 H   0  0  0  0  0  0
   -6.5097    6.8144   19.2404 H   0  0  0  0  0  0
   -8.2271    6.4157   18.9360 H   0  0  0  0  0  0
   -7.6011    4.4185   17.7162 H   0  0  0  0  0  0
   -5.9039    4.6160   18.1583 H   0  0  0  0  0  0
   -6.3406    5.3820   15.9696 H   0  0  0  0  0  0
   -7.4653    6.4573   16.5154 H   0  0  0  0  0  0
   -5.8796    6.6419   16.9285 H   0  0  0  0  0  0
  1  2  1  0  0  0
  1 15  1  0  0  0
  1 16  1  0  0  0
  1 17  1  0  0  0
  2  3  1  0  0  0
  2 18  1  0  0  0
  2 19  1  0  0  0
  3  4  1  0  0  0
  3 20  1  0  0  0
  3 21  1  0  0  0
  4  5  1  0  0  0
  4 22  1  0  0  0
  4 23  1  0  0  0
  5  6  1  0  0  0
  5 24  1  0  0  0
  5 25  1  0  0  0
  6  7  1  0  0  0
  6 26  1  0  0  0
  6 27  1  0  0  0
  7  8  1  0  0  0
  7 28  1  0  0  0
  7 29  1  0  0  0
  8  9  1  0  0  0
  8 30  1  0  0  0
  8 31  1  0  0  0
  9 10  1  0  0  0
  9 32  1  0  0  0
  9 33  1  0  0  0
 10 11  1  0  0  0
 10 34  1  0  0  0
 10 35  1  0  0  0
 11 12  1  0  0  0
 11 36  1  0  0  0
 11 37  1  0  0  0
 12 13  1  0  0  0
 12 38  1  0  0  0
 12 39  1  0  0  0
 13 14  1  0  0  0
 13 40  1  0  0  0
 13 41  1  0  0  0
 14 42  1  0  0  0
 14 43  1  0  0  0
 14 44  1  0  0  0
M  CHG  4   1   1   5   1  10   1  14   1
M  END
> <s_pdb_PDB_format_version>
3.0

> <b_ppw_prepared>
1

> <s_ppw_prepared_with_version>
2021-1

> <s_ppw_het_states>
eJztkDsOhDAMRK9iUUerDGTD5yooN0DbbYW4O3YYAweghIL3ApFn5LVBM8msD4KgBJnbINHYkYn88n/muScHciQReRHwLz4SPhPJ7phZbHsld1Rloio9WpmvFj1VOVCVI9V4NjHBrRY8soqHVvFm8ZNz1NHrFuT3X5bjXSu/q3pX9eyqyrYDSPLCyg==

$$$$
