@<TRIPOS>MOLECULE
MOL
   44    43     1     0     0
SMALL
bcc


@<TRIPOS>ATOM
      1 N1          -4.8690     9.6290    28.9150 nz         1 MOL      -0.837600
      2 C1          -6.0970     9.8240    28.1760 c3         1 MOL       0.105800
      3 C2          -6.6480     8.4740    27.8290 c3         1 MOL      -0.138400
      4 C3          -7.8810     8.5350    26.9680 c3         1 MOL       0.108800
      5 N2          -7.6630     7.4260    26.0840 ny         1 MOL      -0.764000
      6 C4          -8.8640     6.9170    25.4860 c3         1 MOL       0.107800
      7 C5          -8.4410     5.6150    24.8610 c3         1 MOL      -0.106400
      8 C6          -9.0760     5.4940    23.5110 c3         1 MOL      -0.106400
      9 C7          -8.0420     4.9390    22.5600 c3         1 MOL       0.107800
     10 N3          -8.0780     5.7480    21.3620 ny         1 MOL      -0.764000
     11 C8          -7.2490     5.1380    20.3490 c3         1 MOL       0.108800
     12 C9          -7.2310     6.0080    19.1080 c3         1 MOL      -0.138400
     13 C10         -6.8220     5.1530    17.9200 c3         1 MOL       0.105800
     14 N4          -6.6110     5.9700    16.7450 nz         1 MOL      -0.837600
     15 H1          -4.4770    10.5270    29.1610 hn         1 MOL       0.485467
     16 H2          -5.0610     9.1040    29.7560 hn         1 MOL       0.485467
     17 H3          -4.2100     9.1190    28.3450 hn         1 MOL       0.485467
     18 H4          -5.8860    10.3760    27.2600 hx         1 MOL       0.131700
     19 H5          -6.8140    10.3600    28.7980 hx         1 MOL       0.131700
     20 H6          -6.8730     7.9290    28.7450 hc         1 MOL       0.098700
     21 H7          -5.8810     7.8900    27.3210 hc         1 MOL       0.098700
     22 H8          -7.8690     9.4600    26.3910 hx         1 MOL       0.127700
     23 H9          -8.7580     8.3340    27.5840 hx         1 MOL       0.127700
     24 H10         -7.1980     6.6830    26.5870 hn         1 MOL       0.464800
     25 H11         -7.0170     7.6990    25.3580 hn         1 MOL       0.464800
     26 H12         -9.1960     7.6010    24.7050 hx         1 MOL       0.122700
     27 H13         -9.6000     6.7210    26.2660 hx         1 MOL       0.122700
     28 H14         -8.7670     4.7870    25.4910 hc         1 MOL       0.087700
     29 H15         -7.3560     5.5990    24.7550 hc         1 MOL       0.087700
     30 H16         -9.3920     6.4800    23.1690 hc         1 MOL       0.087700
     31 H17         -9.9220     4.8090    23.5680 hc         1 MOL       0.087700
     32 H18         -8.2950     3.9090    22.3100 hx         1 MOL       0.122700
     33 H19         -7.0550     5.0100    23.0160 hx         1 MOL       0.122700
     34 H20         -7.7290     6.6730    21.5700 hn         1 MOL       0.464800
     35 H21         -9.0290     5.8100    21.0260 hn         1 MOL       0.464800
     36 H22         -7.6470     4.1550    20.0980 hx         1 MOL       0.127700
     37 H23         -6.2340     5.0270    20.7290 hx         1 MOL       0.127700
     38 H24         -6.5100     6.8140    19.2400 hc         1 MOL       0.098700
     39 H25         -8.2270     6.4160    18.9360 hc         1 MOL       0.098700
     40 H26         -7.6010     4.4180    17.7160 hx         1 MOL       0.131700
     41 H27         -5.9040     4.6160    18.1580 hx         1 MOL       0.131700
     42 H28         -6.3410     5.3820    15.9700 hn         1 MOL       0.485467
     43 H29         -7.4650     6.4570    16.5150 hn         1 MOL       0.485467
     44 H30         -5.8800     6.6420    16.9280 hn         1 MOL       0.485467
@<TRIPOS>BOND
     1     1     2 1   
     2     1    15 1   
     3     1    16 1   
     4     1    17 1   
     5     2     3 1   
     6     2    18 1   
     7     2    19 1   
     8     3     4 1   
     9     3    20 1   
    10     3    21 1   
    11     4     5 1   
    12     4    22 1   
    13     4    23 1   
    14     5     6 1   
    15     5    24 1   
    16     5    25 1   
    17     6     7 1   
    18     6    26 1   
    19     6    27 1   
    20     7     8 1   
    21     7    28 1   
    22     7    29 1   
    23     8     9 1   
    24     8    30 1   
    25     8    31 1   
    26     9    10 1   
    27     9    32 1   
    28     9    33 1   
    29    10    11 1   
    30    10    34 1   
    31    10    35 1   
    32    11    12 1   
    33    11    36 1   
    34    11    37 1   
    35    12    13 1   
    36    12    38 1   
    37    12    39 1   
    38    13    14 1   
    39    13    40 1   
    40    13    41 1   
    41    14    42 1   
    42    14    43 1   
    43    14    44 1   
@<TRIPOS>SUBSTRUCTURE
     1 MOL         1 TEMP              0 ****  ****    0 ROOT
