
                    3D
 Schrodinger Suite 2021-1.
 38 39  0  0  1  0            999 V2000
    7.9900   23.6560    7.3780 C   0  0  0  0  0  0
    7.5470   24.6440    6.5040 C   0  0  0  0  0  0
    8.3430   25.0390    5.4640 C   0  0  0  0  0  0
    9.5910   24.4760    5.2450 C   0  0  0  0  0  0
    9.9930   23.4800    6.1400 C   0  0  0  0  0  0
    9.2280   23.0680    7.1930 C   0  0  0  0  0  0
   10.4000   24.8680    4.2060 C   0  0  0  0  0  0
   11.6640   24.3120    4.0930 N   0  3  0  0  0  0
   10.1590   26.0950    3.6100 N   0  0  0  0  0  0
    7.1450   23.2680    8.4310 N   0  0  0  0  0  0
    7.4950   22.2370    9.2260 N   0  0  0  0  0  0
    6.7110   22.1010   10.2060 N   0  0  0  0  0  0
    7.2820   21.2130   11.1930 C   0  0  0  0  0  0
    8.6030   20.8180   11.2330 C   0  0  0  0  0  0
    9.0340   19.9740   12.2190 C   0  0  0  0  0  0
    8.1400   19.5020   13.1860 C   0  0  0  0  0  0
    6.8210   19.8940   13.1400 C   0  0  0  0  0  0
    6.3900   20.7580   12.1330 C   0  0  0  0  0  0
    8.5760   18.6510   14.1670 C   0  0  0  0  0  0
    9.9220   18.5990   14.4710 N   0  3  0  0  0  0
    7.6540   17.8790   14.8490 N   0  0  0  0  0  0
    6.5771   25.0968    6.6477 H   0  0  0  0  0  0
    8.0041   25.8090    4.7868 H   0  0  0  0  0  0
   10.9507   22.9965    6.0154 H   0  0  0  0  0  0
    9.5690   22.3018    7.8735 H   0  0  0  0  0  0
   12.2716   24.5889    3.3352 H   0  0  0  0  0  0
   11.9778   23.6297    4.7684 H   0  0  0  0  0  0
   10.7389   26.4071    2.8442 H   0  0  0  0  0  0
    9.4033   26.6776    3.9412 H   0  0  0  0  0  0
    6.2781   23.7610    8.5907 H   0  0  0  0  0  0
    9.2963   21.1752   10.4859 H   0  0  0  0  0  0
   10.0693   19.6685   12.2539 H   0  0  0  0  0  0
    6.1241   19.5328   13.8818 H   0  0  0  0  0  0
    5.3566   21.0691   12.0919 H   0  0  0  0  0  0
   10.2530   17.9747   15.1927 H   0  0  0  0  0  0
   10.5755   19.1852   13.9717 H   0  0  0  0  0  0
    7.9622   17.2475   15.5745 H   0  0  0  0  0  0
    6.6722   17.9465   14.6217 H   0  0  0  0  0  0
  1  2  2  0  0  0
  1  6  1  0  0  0
  1 10  1  0  0  0
  2  3  1  0  0  0
  2 22  1  0  0  0
  3  4  2  0  0  0
  3 23  1  0  0  0
  4  5  1  0  0  0
  4  7  1  0  0  0
  5  6  2  0  0  0
  5 24  1  0  0  0
  6 25  1  0  0  0
  7  8  2  0  0  0
  7  9  1  0  0  0
  8 26  1  0  0  0
  8 27  1  0  0  0
  9 28  1  0  0  0
  9 29  1  0  0  0
 10 11  1  0  0  0
 10 30  1  0  0  0
 11 12  2  0  0  0
 12 13  1  0  0  0
 13 14  2  0  0  0
 13 18  1  0  0  0
 14 15  1  0  0  0
 14 31  1  0  0  0
 15 16  2  0  0  0
 15 32  1  0  0  0
 16 17  1  0  0  0
 16 19  1  0  0  0
 17 18  2  0  0  0
 17 33  1  0  0  0
 18 34  1  0  0  0
 19 20  2  0  0  0
 19 21  1  0  0  0
 20 35  1  0  0  0
 20 36  1  0  0  0
 21 37  1  0  0  0
 21 38  1  0  0  0
M  CHG  2   8   1  20   1
M  END
> <s_pdb_PDB_format_version>
3.0

> <b_ppw_prepared>
1

> <s_ppw_prepared_with_version>
2021-1

> <s_ppw_het_states>
eJxFkEsOgzAMRK8SsU6rTPj3Kig3QN11hbh7bTMDXXSeI+tNyNGh+6TNfsiptJy2yuyZA3NkTsyZueQEz5UzikBGSAk5ISlkhbSQF4tA5lpYVcPs5Lc2e429nCYuGOJezqknWg5cthx5ajgTx1BUft7y4CqxW6HB4W43gIoCVBWDXslPoeYAFTpAF4nhLp0vQdVr+EM8Q1zHpld52/lx5vT97fv139r5B8jVZkQ=

$$$$
