@<TRIPOS>MOLECULE
MOL
   38    39     1     0     0
SMALL
bcc


@<TRIPOS>ATOM
      1 C1           7.9900    23.6560     7.3780 ca         1 MOL       0.117800
      2 C2           7.5470    24.6440     6.5040 ca         1 MOL      -0.166000
      3 C3           8.3430    25.0390     5.4640 ca         1 MOL      -0.042500
      4 C4           9.5910    24.4760     5.2450 ca         1 MOL      -0.293900
      5 C5           9.9930    23.4800     6.1400 ca         1 MOL      -0.042500
      6 C6           9.2280    23.0680     7.1930 ca         1 MOL      -0.166000
      7 C7          10.4000    24.8680     4.2060 ce         1 MOL       0.525400
      8 N1          11.6640    24.3120     4.0930 nv         1 MOL      -0.467100
      9 N2          10.1590    26.0950     3.6100 nv         1 MOL      -0.451200
     10 N3           7.1450    23.2680     8.4310 nu         1 MOL      -0.080400
     11 N4           7.4950    22.2370     9.2260 ne         1 MOL      -0.075100
     12 N5           6.7110    22.1010    10.2060 ne         1 MOL      -0.467700
     13 C8           7.2820    21.2130    11.1930 cd         1 MOL       0.357700
     14 C9           8.6030    20.8180    11.2330 cd         1 MOL      -0.111000
     15 C10          9.0340    19.9740    12.2190 cc         1 MOL      -0.074000
     16 C11          8.1400    19.5020    13.1860 cc         1 MOL      -0.173000
     17 C12          6.8210    19.8940    13.1400 cc         1 MOL      -0.074000
     18 C13          6.3900    20.7580    12.1330 cd         1 MOL      -0.111000
     19 C14          8.5760    18.6510    14.1670 c2         1 MOL       0.506000
     20 N6           9.9220    18.5990    14.4710 nv         1 MOL      -0.801100
     21 N7           7.6540    17.8790    14.8490 nv         1 MOL      -0.801100
     22 H1           6.5770    25.0970     6.6480 ha         1 MOL       0.173000
     23 H2           8.0040    25.8090     4.7870 ha         1 MOL       0.156500
     24 H3          10.9510    22.9970     6.0150 ha         1 MOL       0.156500
     25 H4           9.5690    22.3020     7.8730 ha         1 MOL       0.173000
     26 H5          12.2720    24.5890     3.3350 hn         1 MOL       0.328450
     27 H6          11.9780    23.6300     4.7680 hn         1 MOL       0.328450
     28 H7          10.7390    26.4070     2.8440 hn         1 MOL       0.328450
     29 H8           9.4030    26.6780     3.9410 hn         1 MOL       0.328450
     30 H9           6.2780    23.7610     8.5910 hn         1 MOL       0.308700
     31 H10          9.2960    21.1750    10.4860 ha         1 MOL       0.176500
     32 H11         10.0690    19.6690    12.2540 ha         1 MOL       0.158000
     33 H12          6.1240    19.5330    13.8820 ha         1 MOL       0.158000
     34 H13          5.3570    21.0690    12.0920 ha         1 MOL       0.176500
     35 H14         10.2530    17.9750    15.1930 hn         1 MOL       0.485050
     36 H15         10.5750    19.1850    13.9720 hn         1 MOL       0.485050
     37 H16          7.9620    17.2470    15.5750 hn         1 MOL       0.485050
     38 H17          6.6720    17.9470    14.6220 hn         1 MOL       0.485050
@<TRIPOS>BOND
     1     1     2 ar  
     2     1     6 ar  
     3     1    10 1   
     4     2     3 ar  
     5     2    22 1   
     6     3     4 ar  
     7     3    23 1   
     8     4     5 ar  
     9     4     7 1   
    10     5     6 ar  
    11     5    24 1   
    12     6    25 1   
    13     7     8 2   
    14     7     9 1   
    15     8    26 1   
    16     8    27 1   
    17     9    28 1   
    18     9    29 1   
    19    10    11 2   
    20    10    30 1   
    21    11    12 1   
    22    12    13 2   
    23    13    14 1   
    24    13    18 1   
    25    14    15 2   
    26    14    31 1   
    27    15    16 1   
    28    15    32 1   
    29    16    17 1   
    30    16    19 2   
    31    17    18 2   
    32    17    33 1   
    33    18    34 1   
    34    19    20 1   
    35    19    21 1   
    36    20    35 1   
    37    20    36 1   
    38    21    37 1   
    39    21    38 1   
@<TRIPOS>SUBSTRUCTURE
     1 MOL         1 TEMP              0 ****  ****    0 ROOT
