
                    3D
 Schrodinger Suite 2021-1.
 45 47  0  0  1  0            999 V2000
   18.3580    4.2720   21.3040 C   0  0  0  0  0  0
   17.9300    4.2820   22.6270 C   0  0  0  0  0  0
   16.7050    4.8510   22.9570 C   0  0  0  0  0  0
   15.9090    5.4100   21.9630 C   0  0  0  0  0  0
   16.3380    5.4020   20.6420 C   0  0  0  0  0  0
   17.5640    4.8340   20.3130 C   0  0  0  0  0  0
   18.0080    4.8560   18.9950 C   0  0  0  0  0  0
   18.4790    6.2660   18.6360 C   0  0  1  0  0  0
   18.9530    6.9850   19.9000 C   0  0  0  0  0  0
   20.1370    6.7910   20.2530 O   0  0  0  0  0  0
   18.1220    7.7140   20.4840 O   0  5  0  0  0  0
   19.5880    6.1830   17.6730 N   0  0  0  0  0  0
   20.6190    5.3490   17.8690 C   0  0  0  0  0  0
   21.4590    5.4900   18.7570 O   0  0  0  0  0  0
   20.6880    4.2820   16.9800 C   0  0  0  0  0  0
   20.1190    4.3900   15.7170 C   0  0  0  0  0  0
   20.1650    3.3100   14.8420 C   0  0  0  0  0  0
   19.4720    3.4520   13.2680 Cl  0  0  0  0  0  0
   20.7790    2.1240   15.2260 C   0  0  0  0  0  0
   20.7980    1.0530   14.3380 C   0  0  0  0  0  0
   21.1950   -0.2210   15.0660 C   0  0  1  0  0  0
   21.4630   -1.3310   14.0480 C   0  0  0  0  0  0
   22.3830    0.0280   15.8300 O   0  0  0  0  0  0
   22.0820    0.8840   16.8430 C   0  0  0  0  0  0
   22.3420    0.6650   18.0250 O   0  0  0  0  0  0
   21.3560    2.0180   16.4860 C   0  0  0  0  0  0
   21.3080    3.0970   17.3620 C   0  0  0  0  0  0
   22.4050    3.2480   18.1510 O   0  0  0  0  0  0
   19.3080    3.8271   21.0471 H   0  0  0  0  0  0
   18.5491    3.8478   23.3981 H   0  0  0  0  0  0
   16.3724    4.8586   23.9845 H   0  0  0  0  0  0
   14.9566    5.8507   22.2180 H   0  0  0  0  0  0
   15.7195    5.8368   19.8707 H   0  0  0  0  0  0
   17.1927    4.5658   18.3323 H   0  0  0  0  0  0
   18.8356    4.1562   18.8789 H   0  0  0  0  0  0
   17.6535    6.8215   18.1910 H   0  0  0  0  0  0
   19.5624    6.7700   16.8515 H   0  0  0  0  0  0
   19.6422    5.3113   15.4165 H   0  0  0  0  0  0
   21.5145    1.2544   13.5416 H   0  0  0  0  0  0
   19.8080    0.9272   13.8997 H   0  0  0  0  0  0
   20.3892   -0.5255   15.7338 H   0  0  0  0  0  0
   21.7475   -2.2438   14.5714 H   0  0  0  0  0  0
   20.5614   -1.5140   13.4634 H   0  0  0  0  0  0
   22.2713   -1.0272   13.3828 H   0  0  0  0  0  0
   22.7668    2.3850   18.3653 H   0  0  0  0  0  0
  1  2  1  0  0  0
  1  6  2  0  0  0
  1 29  1  0  0  0
  2  3  2  0  0  0
  2 30  1  0  0  0
  3  4  1  0  0  0
  3 31  1  0  0  0
  4  5  2  0  0  0
  4 32  1  0  0  0
  5  6  1  0  0  0
  5 33  1  0  0  0
  6  7  1  0  0  0
  7  8  1  0  0  0
  7 34  1  0  0  0
  7 35  1  0  0  0
  8  9  1  0  0  0
  8 12  1  0  0  0
  8 36  1  0  0  0
  9 10  2  0  0  0
  9 11  1  0  0  0
 12 13  1  0  0  0
 12 37  1  0  0  0
 13 14  2  0  0  0
 13 15  1  0  0  0
 15 16  1  0  0  0
 15 27  2  0  0  0
 16 17  2  0  0  0
 16 38  1  0  0  0
 17 18  1  0  0  0
 17 19  1  0  0  0
 19 20  1  0  0  0
 19 26  2  0  0  0
 20 21  1  0  0  0
 20 39  1  0  0  0
 20 40  1  0  0  0
 21 22  1  0  0  0
 21 23  1  0  0  0
 21 41  1  0  0  0
 22 42  1  0  0  0
 22 43  1  0  0  0
 22 44  1  0  0  0
 23 24  1  0  0  0
 24 25  2  0  0  0
 24 26  1  0  0  0
 26 27  1  0  0  0
 27 28  1  0  0  0
 28 45  1  0  0  0
M  CHG  1  11  -1
M  END
> <i_pdb_PDB_Model>
1

> <s_pdb_PDB_format_version>
3.0

> <b_ppw_prepared>
1

> <s_ppw_prepared_with_version>
2021-1

> <s_ppw_het_states>
eJztkkESglAMQ6/yhzU6pB8EvIrDDRx3rhjvblsTxBO4UBcmwT+P/Nq1QXMuF/+gLd3SlotRK7WnDtQTdaRO1JmKTsaJB6QTE4JCVAgLcSEwRIbQJrRtZUU2kU1kE9lENpEtyeHi1o54tWyLnzTOoNK69jzgOvDpkGfBeYy0rhOt6/y20DviWUdGeOjdcaAqhOl5KsOgX8KcdiGuZBofthCF1CSDuoSJKb7DduWopTphzPZB3cKYBhLGNJIM6pZYjSVLZh1P3RFjhLWpo29exvnRltv9en195//ya+t4wH8fv7SPE/q620eP+NzH5fEEZbQT7A==

$$$$
