@<TRIPOS>MOLECULE
MOL
   45    47     1     0     0
SMALL
bcc


@<TRIPOS>ATOM
      1 C1          18.3580     4.2720    21.3040 ca         1 MOL      -0.113500
      2 C2          17.9300     4.2820    22.6270 ca         1 MOL      -0.116500
      3 C3          16.7050     4.8510    22.9570 ca         1 MOL      -0.093000
      4 C4          15.9090     5.4100    21.9630 ca         1 MOL      -0.116500
      5 C5          16.3380     5.4020    20.6420 ca         1 MOL      -0.113500
      6 C6          17.5640     4.8340    20.3130 ca         1 MOL      -0.146300
      7 C7          18.0080     4.8560    18.9950 c3         1 MOL      -0.059100
      8 C8          18.4790     6.2660    18.6360 c3         1 MOL       0.219700
      9 C9          18.9530     6.9850    19.9000 c          1 MOL       1.029600
     10 O1          20.1370     6.7910    20.2530 o          1 MOL      -0.488300
     11 O2          18.1220     7.7140    20.4840 o          1 MOL      -0.488300
     12 N1          19.5880     6.1830    17.6730 ns         1 MOL      -0.371900
     13 C10         20.6190     5.3490    17.8690 c          1 MOL       0.681700
     14 O3          21.4590     5.4900    18.7570 o          1 MOL      -0.444100
     15 C11         20.6880     4.2820    16.9800 ca         1 MOL      -0.244600
     16 C12         20.1190     4.3900    15.7170 ca         1 MOL       0.003000
     17 C13         20.1650     3.3100    14.8420 ca         1 MOL      -0.042600
     18 Cl1         19.4720     3.4520    13.2680 cl         1 MOL      -0.021400
     19 C14         20.7790     2.1240    15.2260 ca         1 MOL       0.071700
     20 C15         20.7980     1.0530    14.3380 c3         1 MOL      -0.104100
     21 C16         21.1950    -0.2210    15.0660 c3         1 MOL       0.149100
     22 C17         21.4630    -1.3310    14.0480 c3         1 MOL      -0.103100
     23 O4          22.3830     0.0280    15.8300 os         1 MOL      -0.374900
     24 C18         22.0820     0.8840    16.8430 c          1 MOL       0.744200
     25 O5          22.3420     0.6650    18.0250 o          1 MOL      -0.599500
     26 C19         21.3560     2.0180    16.4860 ca         1 MOL      -0.253600
     27 C20         21.3080     3.0970    17.3620 ca         1 MOL       0.255100
     28 O6          22.4050     3.2480    18.1510 oh         1 MOL      -0.545100
     29 H1          19.3080     3.8270    21.0470 ha         1 MOL       0.135500
     30 H2          18.5490     3.8480    23.3980 ha         1 MOL       0.154500
     31 H3          16.3720     4.8590    23.9850 ha         1 MOL       0.156000
     32 H4          14.9570     5.8510    22.2180 ha         1 MOL       0.154500
     33 H5          15.7200     5.8370    19.8710 ha         1 MOL       0.135500
     34 H6          17.1930     4.5660    18.3320 hc         1 MOL       0.113700
     35 H7          18.8360     4.1560    18.8790 hc         1 MOL       0.113700
     36 H8          17.6540     6.8220    18.1910 h1         1 MOL       0.171700
     37 H9          19.5620     6.7700    16.8520 hn         1 MOL       0.383500
     38 H10         19.6420     5.3110    15.4160 ha         1 MOL       0.186000
     39 H11         21.5150     1.2540    13.5420 hc         1 MOL       0.105700
     40 H12         19.8080     0.9270    13.9000 hc         1 MOL       0.105700
     41 H13         20.3890    -0.5250    15.7340 h1         1 MOL       0.065700
     42 H14         21.7470    -2.2440    14.5710 hc         1 MOL       0.066700
     43 H15         20.5610    -1.5140    13.4630 hc         1 MOL       0.066700
     44 H16         22.2710    -1.0270    13.3830 hc         1 MOL       0.066700
     45 H17         22.7670     2.3850    18.3650 ho         1 MOL       0.502000
@<TRIPOS>BOND
     1     1     2 ar  
     2     1     6 ar  
     3     1    29 1   
     4     2     3 ar  
     5     2    30 1   
     6     3     4 ar  
     7     3    31 1   
     8     4     5 ar  
     9     4    32 1   
    10     5     6 ar  
    11     5    33 1   
    12     6     7 1   
    13     7     8 1   
    14     7    34 1   
    15     7    35 1   
    16     8     9 1   
    17     8    12 1   
    18     8    36 1   
    19     9    10 1   
    20     9    11 1   
    21    12    13 1   
    22    12    37 1   
    23    13    14 2   
    24    13    15 1   
    25    15    16 ar  
    26    15    27 ar  
    27    16    17 ar  
    28    16    38 1   
    29    17    18 1   
    30    17    19 ar  
    31    19    20 1   
    32    19    26 ar  
    33    20    21 1   
    34    20    39 1   
    35    20    40 1   
    36    21    22 1   
    37    21    23 1   
    38    21    41 1   
    39    22    42 1   
    40    22    43 1   
    41    22    44 1   
    42    23    24 1   
    43    24    25 2   
    44    24    26 1   
    45    26    27 ar  
    46    27    28 1   
    47    28    45 1   
@<TRIPOS>SUBSTRUCTURE
     1 MOL         1 TEMP              0 ****  ****    0 ROOT
