@<TRIPOS>MOLECULE
MOL
   99   105     1     0     0
SMALL
bcc


@<TRIPOS>ATOM
      1 C1          -7.9870    -3.0850    -2.3720 ca         1 MOL       0.391300
      2 C2          -7.7650    -4.0140    -0.2380 ca         1 MOL       0.391300
      3 C3          -7.6950    -5.3150    -0.7720 ca         1 MOL      -0.213800
      4 C4          -7.7700    -5.5120    -2.1530 ca         1 MOL       0.130100
      5 C5          -5.4700    -7.3130     9.1560 c3         1 MOL      -0.103900
      6 C6          -5.1720    -6.5830    10.4950 c3         1 MOL      -0.103900
      7 C7          -5.8530    -5.2190    10.3000 c3         1 MOL       0.114800
      8 N1          -5.7410    -4.8560     8.8750 nx         1 MOL      -0.686400
      9 C8          -5.9310    -6.1720     8.1980 c3         1 MOL       0.114800
     10 C9          -6.6200    -3.7450     8.4580 c3         1 MOL       0.104300
     11 C10         -6.3760    -3.3740     7.0050 c3         1 MOL       0.105400
     12 O1          -7.1450    -2.2010     6.7150 os         1 MOL      -0.357900
     13 C11         -7.3010    -1.7950     5.4290 ca         1 MOL       0.170600
     14 C12         -7.4000    -0.3510     5.2480 ca         1 MOL      -0.167800
     15 C13         -7.5720     0.1640     3.8970 ca         1 MOL       0.445600
     16 C14         -7.6810     1.5810     3.6670 ca         1 MOL      -0.168800
     17 C15         -7.6240     2.4610     4.7340 ca         1 MOL      -0.093000
     18 C16         -7.4570     1.9790     6.0580 ca         1 MOL      -0.111000
     19 C17         -7.3470     0.6200     6.3200 ca         1 MOL      -0.107000
     20 N2          -7.6420    -0.6530     2.8070 nb         1 MOL      -0.704500
     21 C18         -7.5520    -1.9550     2.9940 ca         1 MOL       0.561700
     22 C19         -7.3780    -2.6100     4.2860 ca         1 MOL      -0.320800
     23 N3          -7.6510    -2.5410     1.7220 ns         1 MOL      -0.524400
     24 C20         -7.6250    -3.8450     1.3010 c          1 MOL       0.588100
     25 O2          -7.4960    -4.8270     2.0330 o          1 MOL      -0.591100
     26 N4          -7.9110    -2.9110    -1.0300 nb         1 MOL      -0.640000
     27 C21         -7.9190    -4.3780    -2.9650 ca         1 MOL      -0.213800
     28 O3          -7.6550    -6.7970    -2.5350 os         1 MOL      -0.364900
     29 C22         -7.6760    -7.1390    -3.9380 c3         1 MOL       0.101400
     30 C23         -7.7600    -8.6450    -4.1170 c3         1 MOL       0.095800
     31 N5          -7.7710    -8.9800    -5.5540 nz         1 MOL      -0.835600
     32 C24         -8.1690    -1.8260    -3.2910 c          1 MOL       0.588100
     33 O4          -8.2480    -2.0290    -4.5030 o          1 MOL      -0.591100
     34 N6          -8.2110    -0.5750    -2.6950 ns         1 MOL      -0.524400
     35 C25         -8.3640     0.7380    -3.2380 ca         1 MOL       0.561700
     36 C26         -8.5250     1.0550    -4.6580 ca         1 MOL      -0.320800
     37 C27         -8.6100     2.3900    -5.0700 ca         1 MOL       0.170600
     38 C28         -8.5350     3.4140    -4.0410 ca         1 MOL      -0.167800
     39 C29         -8.3770     2.9940    -2.6530 ca         1 MOL       0.445600
     40 N7          -8.2970     1.6690    -2.2930 nb         1 MOL      -0.704500
     41 C30         -8.2930     3.9760    -1.6100 ca         1 MOL      -0.168800
     42 C31         -8.3620     5.3190    -1.9250 ca         1 MOL      -0.093000
     43 C32         -8.5150     5.7400    -3.2730 ca         1 MOL      -0.111000
     44 C33         -8.5990     4.8150    -4.3020 ca         1 MOL      -0.107000
     45 O5          -8.7500     2.8390    -6.3530 os         1 MOL      -0.357900
     46 C34         -9.0050     1.9100    -7.4200 c3         1 MOL       0.105400
     47 C35         -9.1590     2.6750    -8.7360 c3         1 MOL       0.104300
     48 N8          -9.3120     1.7080    -9.8500 nx         1 MOL      -0.686400
     49 C36        -10.4240     1.9660   -10.7830 c3         1 MOL       0.114800
     50 C37         -9.9270     3.0070   -11.8040 c3         1 MOL      -0.103900
     51 C38         -8.4130     2.6540   -11.9430 c3         1 MOL      -0.103900
     52 C39         -8.1760     1.5990   -10.8130 c3         1 MOL       0.114800
     53 H1          -7.5830    -6.1640    -0.1140 ha         1 MOL       0.182500
     54 H2          -6.2910    -8.0140     9.3030 hc         1 MOL       0.097950
     55 H3          -4.5500    -7.7550     8.7740 hc         1 MOL       0.097950
     56 H4          -4.0960    -6.4370    10.5930 hc         1 MOL       0.097950
     57 H5          -5.6610    -7.1150    11.3110 hc         1 MOL       0.097950
     58 H6          -5.3440    -4.4700    10.9060 hx         1 MOL       0.108575
     59 H7          -6.9050    -5.2960    10.5730 hx         1 MOL       0.108575
     60 H8          -4.7880    -4.5660     8.7110 hn         1 MOL       0.445800
     61 H9          -6.9850    -6.3060     7.9540 hx         1 MOL       0.108575
     62 H10         -5.3350    -6.2010     7.2860 hx         1 MOL       0.108575
     63 H11         -6.4330    -2.8770     9.0910 hx         1 MOL       0.114700
     64 H12         -7.6620    -4.0380     8.5880 hx         1 MOL       0.114700
     65 H13         -6.7040    -4.1910     6.3620 h1         1 MOL       0.084200
     66 H14         -5.3170    -3.1590     6.8580 h1         1 MOL       0.084200
     67 H15         -7.8070     1.9570     2.6620 ha         1 MOL       0.165000
     68 H16         -7.7070     3.5240     4.5620 ha         1 MOL       0.159500
     69 H17         -7.4130     2.6730     6.8840 ha         1 MOL       0.152500
     70 H18         -7.2200     0.2910     7.3410 ha         1 MOL       0.123000
     71 H19         -7.3090    -3.6830     4.3830 ha         1 MOL       0.176000
     72 H20         -7.7650    -1.9580     0.9050 hn         1 MOL       0.357000
     73 H21         -7.9820    -4.4840    -4.0380 ha         1 MOL       0.182500
     74 H22         -6.7700    -6.7670    -4.4160 h1         1 MOL       0.093200
     75 H23         -8.5370    -6.6680    -4.4130 h1         1 MOL       0.093200
     76 H24         -8.6730    -9.0160    -3.6510 hx         1 MOL       0.129700
     77 H25         -6.9000    -9.1160    -3.6410 hx         1 MOL       0.129700
     78 H26         -7.8270    -9.9820    -5.6660 hn         1 MOL       0.470467
     79 H27         -8.5700    -8.5470    -5.9950 hn         1 MOL       0.470467
     80 H28         -6.9240    -8.6400    -5.9860 hn         1 MOL       0.470467
     81 H29         -8.1240    -0.4900    -1.6920 hn         1 MOL       0.357000
     82 H30         -8.5780     0.2590    -5.3860 ha         1 MOL       0.176000
     83 H31         -8.1760     3.6640    -0.5830 ha         1 MOL       0.165000
     84 H32         -8.3000     6.0610    -1.1430 ha         1 MOL       0.159500
     85 H33         -8.5670     6.7930    -3.5070 ha         1 MOL       0.152500
     86 H34         -8.7150     5.1710    -5.3150 ha         1 MOL       0.123000
     87 H35         -9.9220     1.3590    -7.2110 h1         1 MOL       0.084200
     88 H36         -8.1710     1.2120    -7.5010 h1         1 MOL       0.084200
     89 H37         -8.2730     3.2870    -8.9060 hx         1 MOL       0.114700
     90 H38        -10.0420     3.3120    -8.6840 hx         1 MOL       0.114700
     91 H39         -9.4580     0.7950    -9.4440 hn         1 MOL       0.445800
     92 H40        -11.2720     2.3740   -10.2330 hx         1 MOL       0.108575
     93 H41        -10.6830     1.0430   -11.3030 hx         1 MOL       0.108575
     94 H42        -10.0250     4.0050   -11.3770 hc         1 MOL       0.097950
     95 H43        -10.4240     2.8390   -12.7590 hc         1 MOL       0.097950
     96 H44         -7.8160     3.5420   -11.7380 hc         1 MOL       0.097950
     97 H45         -8.2390     2.1880   -12.9130 hc         1 MOL       0.097950
     98 H46         -8.1630     0.5990   -11.2470 hx         1 MOL       0.108575
     99 H47         -7.2420     1.8220   -10.2980 hx         1 MOL       0.108575
@<TRIPOS>BOND
     1     1    26 ar  
     2     1    27 ar  
     3     1    32 1   
     4     2     3 ar  
     5     2    24 1   
     6     2    26 ar  
     7     3     4 ar  
     8     3    53 1   
     9     4    27 ar  
    10     4    28 1   
    11     5     6 1   
    12     5     9 1   
    13     5    54 1   
    14     5    55 1   
    15     6     7 1   
    16     6    56 1   
    17     6    57 1   
    18     7     8 1   
    19     7    58 1   
    20     7    59 1   
    21     8     9 1   
    22     8    10 1   
    23     8    60 1   
    24     9    61 1   
    25     9    62 1   
    26    10    11 1   
    27    10    63 1   
    28    10    64 1   
    29    11    12 1   
    30    11    65 1   
    31    11    66 1   
    32    12    13 1   
    33    13    14 ar  
    34    13    22 ar  
    35    14    15 ar  
    36    14    19 ar  
    37    15    16 ar  
    38    15    20 ar  
    39    16    17 ar  
    40    16    67 1   
    41    17    18 ar  
    42    17    68 1   
    43    18    19 ar  
    44    18    69 1   
    45    19    70 1   
    46    20    21 ar  
    47    21    22 ar  
    48    21    23 1   
    49    22    71 1   
    50    23    24 1   
    51    23    72 1   
    52    24    25 2   
    53    27    73 1   
    54    28    29 1   
    55    29    30 1   
    56    29    74 1   
    57    29    75 1   
    58    30    31 1   
    59    30    76 1   
    60    30    77 1   
    61    31    78 1   
    62    31    79 1   
    63    31    80 1   
    64    32    33 2   
    65    32    34 1   
    66    34    35 1   
    67    34    81 1   
    68    35    36 ar  
    69    35    40 ar  
    70    36    37 ar  
    71    36    82 1   
    72    37    38 ar  
    73    37    45 1   
    74    38    39 ar  
    75    38    44 ar  
    76    39    40 ar  
    77    39    41 ar  
    78    41    42 ar  
    79    41    83 1   
    80    42    43 ar  
    81    42    84 1   
    82    43    44 ar  
    83    43    85 1   
    84    44    86 1   
    85    45    46 1   
    86    46    47 1   
    87    46    87 1   
    88    46    88 1   
    89    47    48 1   
    90    47    89 1   
    91    47    90 1   
    92    48    49 1   
    93    48    52 1   
    94    48    91 1   
    95    49    50 1   
    96    49    92 1   
    97    49    93 1   
    98    50    51 1   
    99    50    94 1   
   100    50    95 1   
   101    51    52 1   
   102    51    96 1   
   103    51    97 1   
   104    52    98 1   
   105    52    99 1   
@<TRIPOS>SUBSTRUCTURE
     1 MOL         1 TEMP              0 ****  ****    0 ROOT
