
                    3D
 Schrodinger Suite 2021-1.
 99105  0  0  1  0            999 V2000
   -7.9870   -3.0850   -2.3720 C   0  0  0  0  0  0
   -7.7650   -4.0140   -0.2380 C   0  0  0  0  0  0
   -7.6950   -5.3150   -0.7720 C   0  0  0  0  0  0
   -7.7700   -5.5120   -2.1530 C   0  0  0  0  0  0
   -5.4700   -7.3130    9.1560 C   0  0  0  0  0  0
   -5.1720   -6.5830   10.4950 C   0  0  0  0  0  0
   -5.8530   -5.2190   10.3000 C   0  0  0  0  0  0
   -5.7410   -4.8560    8.8750 N   0  3  0  0  0  0
   -5.9310   -6.1720    8.1980 C   0  0  0  0  0  0
   -6.6200   -3.7450    8.4580 C   0  0  0  0  0  0
   -6.3760   -3.3740    7.0050 C   0  0  0  0  0  0
   -7.1450   -2.2010    6.7150 O   0  0  0  0  0  0
   -7.3010   -1.7950    5.4290 C   0  0  0  0  0  0
   -7.4000   -0.3510    5.2480 C   0  0  0  0  0  0
   -7.5720    0.1640    3.8970 C   0  0  0  0  0  0
   -7.6810    1.5810    3.6670 C   0  0  0  0  0  0
   -7.6240    2.4610    4.7340 C   0  0  0  0  0  0
   -7.4570    1.9790    6.0580 C   0  0  0  0  0  0
   -7.3470    0.6200    6.3200 C   0  0  0  0  0  0
   -7.6420   -0.6530    2.8070 N   0  0  0  0  0  0
   -7.5520   -1.9550    2.9940 C   0  0  0  0  0  0
   -7.3780   -2.6100    4.2860 C   0  0  0  0  0  0
   -7.6510   -2.5410    1.7220 N   0  0  0  0  0  0
   -7.6250   -3.8450    1.3010 C   0  0  0  0  0  0
   -7.4960   -4.8270    2.0330 O   0  0  0  0  0  0
   -7.9110   -2.9110   -1.0300 N   0  0  0  0  0  0
   -7.9190   -4.3780   -2.9650 C   0  0  0  0  0  0
   -7.6550   -6.7970   -2.5350 O   0  0  0  0  0  0
   -7.6760   -7.1390   -3.9380 C   0  0  0  0  0  0
   -7.7600   -8.6450   -4.1170 C   0  0  0  0  0  0
   -7.7710   -8.9800   -5.5540 N   0  3  0  0  0  0
   -8.1690   -1.8260   -3.2910 C   0  0  0  0  0  0
   -8.2480   -2.0290   -4.5030 O   0  0  0  0  0  0
   -8.2110   -0.5750   -2.6950 N   0  0  0  0  0  0
   -8.3640    0.7380   -3.2380 C   0  0  0  0  0  0
   -8.5250    1.0550   -4.6580 C   0  0  0  0  0  0
   -8.6100    2.3900   -5.0700 C   0  0  0  0  0  0
   -8.5350    3.4140   -4.0410 C   0  0  0  0  0  0
   -8.3770    2.9940   -2.6530 C   0  0  0  0  0  0
   -8.2970    1.6690   -2.2930 N   0  0  0  0  0  0
   -8.2930    3.9760   -1.6100 C   0  0  0  0  0  0
   -8.3620    5.3190   -1.9250 C   0  0  0  0  0  0
   -8.5150    5.7400   -3.2730 C   0  0  0  0  0  0
   -8.5990    4.8150   -4.3020 C   0  0  0  0  0  0
   -8.7500    2.8390   -6.3530 O   0  0  0  0  0  0
   -9.0050    1.9100   -7.4200 C   0  0  0  0  0  0
   -9.1590    2.6750   -8.7360 C   0  0  0  0  0  0
   -9.3120    1.7080   -9.8500 N   0  3  0  0  0  0
  -10.4240    1.9660  -10.7830 C   0  0  0  0  0  0
   -9.9270    3.0070  -11.8040 C   0  0  0  0  0  0
   -8.4130    2.6540  -11.9430 C   0  0  0  0  0  0
   -8.1760    1.5990  -10.8130 C   0  0  0  0  0  0
   -7.5830   -6.1637   -0.1135 H   0  0  0  0  0  0
   -6.2913   -8.0145    9.3027 H   0  0  0  0  0  0
   -4.5499   -7.7550    8.7738 H   0  0  0  0  0  0
   -4.0963   -6.4369   10.5931 H   0  0  0  0  0  0
   -5.6607   -7.1153   11.3111 H   0  0  0  0  0  0
   -5.3444   -4.4695   10.9064 H   0  0  0  0  0  0
   -6.9054   -5.2965   10.5731 H   0  0  0  0  0  0
   -4.7877   -4.5658    8.7106 H   0  0  0  0  0  0
   -6.9849   -6.3061    7.9543 H   0  0  0  0  0  0
   -5.3347   -6.2006    7.2860 H   0  0  0  0  0  0
   -6.4329   -2.8772    9.0905 H   0  0  0  0  0  0
   -7.6618   -4.0382    8.5876 H   0  0  0  0  0  0
   -6.7037   -4.1909    6.3620 H   0  0  0  0  0  0
   -5.3175   -3.1594    6.8581 H   0  0  0  0  0  0
   -7.8072    1.9569    2.6624 H   0  0  0  0  0  0
   -7.7069    3.5240    4.5623 H   0  0  0  0  0  0
   -7.4134    2.6734    6.8840 H   0  0  0  0  0  0
   -7.2203    0.2910    7.3408 H   0  0  0  0  0  0
   -7.3085   -3.6834    4.3825 H   0  0  0  0  0  0
   -7.7654   -1.9583    0.9050 H   0  0  0  0  0  0
   -7.9821   -4.4840   -4.0379 H   0  0  0  0  0  0
   -6.7699   -6.7666   -4.4160 H   0  0  0  0  0  0
   -8.5365   -6.6684   -4.4135 H   0  0  0  0  0  0
   -8.6729   -9.0157   -3.6508 H   0  0  0  0  0  0
   -6.8998   -9.1157   -3.6410 H   0  0  0  0  0  0
   -7.8269   -9.9822   -5.6661 H   0  0  0  0  0  0
   -8.5700   -8.5473   -5.9950 H   0  0  0  0  0  0
   -6.9236   -8.6402   -5.9859 H   0  0  0  0  0  0
   -8.1242   -0.4901   -1.6923 H   0  0  0  0  0  0
   -8.5781    0.2593   -5.3863 H   0  0  0  0  0  0
   -8.1762    3.6640   -0.5827 H   0  0  0  0  0  0
   -8.2996    6.0610   -1.1428 H   0  0  0  0  0  0
   -8.5674    6.7930   -3.5072 H   0  0  0  0  0  0
   -8.7148    5.1708   -5.3151 H   0  0  0  0  0  0
   -9.9221    1.3594   -7.2106 H   0  0  0  0  0  0
   -8.1714    1.2124   -7.5010 H   0  0  0  0  0  0
   -8.2734    3.2873   -8.9058 H   0  0  0  0  0  0
  -10.0419    3.3121   -8.6844 H   0  0  0  0  0  0
   -9.4583    0.7946   -9.4445 H   0  0  0  0  0  0
  -11.2718    2.3739  -10.2327 H   0  0  0  0  0  0
  -10.6829    1.0434  -11.3026 H   0  0  0  0  0  0
  -10.0254    4.0048  -11.3765 H   0  0  0  0  0  0
  -10.4242    2.8389  -12.7593 H   0  0  0  0  0  0
   -7.8157    3.5423  -11.7375 H   0  0  0  0  0  0
   -8.2394    2.1881  -12.9130 H   0  0  0  0  0  0
   -8.1630    0.5992  -11.2470 H   0  0  0  0  0  0
   -7.2415    1.8224  -10.2984 H   0  0  0  0  0  0
  1 26  1  0  0  0
  1 27  2  0  0  0
  1 32  1  0  0  0
  2  3  1  0  0  0
  2 24  1  0  0  0
  2 26  2  0  0  0
  3  4  2  0  0  0
  3 53  1  0  0  0
  4 27  1  0  0  0
  4 28  1  0  0  0
  5  6  1  0  0  0
  5  9  1  0  0  0
  5 54  1  0  0  0
  5 55  1  0  0  0
  6  7  1  0  0  0
  6 56  1  0  0  0
  6 57  1  0  0  0
  7  8  1  0  0  0
  7 58  1  0  0  0
  7 59  1  0  0  0
  8  9  1  0  0  0
  8 10  1  0  0  0
  8 60  1  0  0  0
  9 61  1  0  0  0
  9 62  1  0  0  0
 10 11  1  0  0  0
 10 63  1  0  0  0
 10 64  1  0  0  0
 11 12  1  0  0  0
 11 65  1  0  0  0
 11 66  1  0  0  0
 12 13  1  0  0  0
 13 14  1  0  0  0
 13 22  2  0  0  0
 14 15  1  0  0  0
 14 19  2  0  0  0
 15 16  2  0  0  0
 15 20  1  0  0  0
 16 17  1  0  0  0
 16 67  1  0  0  0
 17 18  2  0  0  0
 17 68  1  0  0  0
 18 19  1  0  0  0
 18 69  1  0  0  0
 19 70  1  0  0  0
 20 21  2  0  0  0
 21 22  1  0  0  0
 21 23  1  0  0  0
 22 71  1  0  0  0
 23 24  1  0  0  0
 23 72  1  0  0  0
 24 25  2  0  0  0
 27 73  1  0  0  0
 28 29  1  0  0  0
 29 30  1  0  0  0
 29 74  1  0  0  0
 29 75  1  0  0  0
 30 31  1  0  0  0
 30 76  1  0  0  0
 30 77  1  0  0  0
 31 78  1  0  0  0
 31 79  1  0  0  0
 31 80  1  0  0  0
 32 33  2  0  0  0
 32 34  1  0  0  0
 34 35  1  0  0  0
 34 81  1  0  0  0
 35 36  1  0  0  0
 35 40  2  0  0  0
 36 37  2  0  0  0
 36 82  1  0  0  0
 37 38  1  0  0  0
 37 45  1  0  0  0
 38 39  1  0  0  0
 38 44  2  0  0  0
 39 40  1  0  0  0
 39 41  2  0  0  0
 41 42  1  0  0  0
 41 83  1  0  0  0
 42 43  2  0  0  0
 42 84  1  0  0  0
 43 44  1  0  0  0
 43 85  1  0  0  0
 44 86  1  0  0  0
 45 46  1  0  0  0
 46 47  1  0  0  0
 46 87  1  0  0  0
 46 88  1  0  0  0
 47 48  1  0  0  0
 47 89  1  0  0  0
 47 90  1  0  0  0
 48 49  1  0  0  0
 48 52  1  0  0  0
 48 91  1  0  0  0
 49 50  1  0  0  0
 49 92  1  0  0  0
 49 93  1  0  0  0
 50 51  1  0  0  0
 50 94  1  0  0  0
 50 95  1  0  0  0
 51 52  1  0  0  0
 51 96  1  0  0  0
 51 97  1  0  0  0
 52 98  1  0  0  0
 52 99  1  0  0  0
M  CHG  3   8   1  31   1  48   1
M  END
> <i_pdb_PDB_Model>
1

> <s_pdb_PDB_format_version>
3.0

> <b_ppw_prepared>
1

> <s_ppw_prepared_with_version>
2021-1

> <s_ppw_het_states>
eJztl0tuwzAMRK9ieB0Y5keK3asEuUHQXVdB716NrJHtAtm2izCLaCjJzxTFDJDnKOPHcCsfuQzz/TLctI3WRm9jamNu47WNy2UQjGuLZaYgUYgUMoVQIVWIFXJloSBZSdaeK8lKspKsJCvJSrKSrCQbySbtNNbLQLKRbCQbyUaykWwkO8nOnJ1k7xUm2Ul2kp1kZ5md5ERyIjlVMhQuE+euT0AXjDaNk0m7aNslCtd1btvLujfpG0WomU9JOe9ybbJMcXMZuXfZN2BqZoIQLHwVTLEKJlmFHwLcvrKd0EnSg5UrmM2HQPtLkTVzrGLhtmUDCHsO7absO+3lQ9ALaMcKoj6JzwDbaUUYM4A49RtaTXtAGoTxcBCWDwH6S9mMxmuGMFYdgXdAmbX1EDgvGLPec0PAY0M4jw3hTBTCmSje4cwNwnu/IIPewHjpeghSR5fZxAwgEqsDsW0r0TylGad9jjoX75LJUio5jJq3KK8FOvpp7aol0mmecR3jIj36vgyfX4/H9l1/OmGEYYRhhGGEYYRhhGGEYYSvjHD3vt9GqGGEf2uEOolkq0aYq6GtGWub9ZXoWqNqdjapqIfZhdmF2YXZhdmF2YXZhdmdze7//+LqS7OTtzW7k72dra/+qQ2zC7MLswuze1uzu3//AKc9JcY=

$$$$
