@<TRIPOS>MOLECULE
MOL
  175   181     1     0     0
SMALL
bcc


@<TRIPOS>ATOM
      1 N1           4.2520    21.3760    10.4470 ns         1 MOL      -0.524900
      2 C1           4.1140    19.9940    10.0220 c3         1 MOL       0.034700
      3 C2           5.1970    19.2130    10.6650 c          1 MOL       0.671100
      4 O1           6.3840    19.5620    10.6940 o          1 MOL      -0.648100
      5 C3           4.1740    19.6430     8.5310 c3         1 MOL       0.135100
      6 O2           5.4920    19.9590     8.0170 os         1 MOL      -0.448900
      7 C4           3.0880    20.3890     7.7600 c3         1 MOL      -0.111100
      8 H1           4.9200    21.4850    11.1610 hn         1 MOL       0.343500
      9 N2           4.5880    18.2040    11.2740 ns         1 MOL      -0.550900
     10 C5           5.2870    16.9930    11.6300 c3         1 MOL       0.047700
     11 C6           4.3430    15.7950    11.3330 c3         1 MOL      -0.065700
     12 C7           4.3450    14.6230    12.3190 c3         1 MOL      -0.102600
     13 C8           4.4720    15.2850     9.8900 c3         1 MOL      -0.102600
     14 C9           5.7660    16.9890    13.0640 c          1 MOL       0.671100
     15 O3           4.9570    17.3630    13.9080 o          1 MOL      -0.661100
     16 H2           3.6680    18.3270    11.5820 hn         1 MOL       0.354500
     17 N3           6.9940    16.5950    13.4090 n          1 MOL      -0.434800
     18 C10          8.1090    16.3430    12.4800 c3         1 MOL       0.026700
     19 C11          7.8260    15.2740    11.4090 c          1 MOL       0.642100
     20 O4           7.3180    14.2110    11.7870 o          1 MOL      -0.577100
     21 C12          9.2650    15.8790    13.3880 c3         1 MOL      -0.079400
     22 C13          8.8210    16.1950    14.7930 c3         1 MOL      -0.090400
     23 C14          7.3030    16.0500    14.7290 c3         1 MOL       0.090000
     24 N4           8.0410    15.5040    10.1000 n          1 MOL      -0.453800
     25 C15          8.5450    16.7500     9.5300 c3         1 MOL       0.024000
     26 C16          7.6720    17.3860     8.4440 c          1 MOL       0.636100
     27 O5           6.5660    16.9080     8.1890 o          1 MOL      -0.583100
     28 C17          7.9790    14.3620     9.1940 c3         1 MOL       0.056300
     29 N5           8.0860    18.4730     7.7790 n          1 MOL      -0.452800
     30 C18          9.0970    19.3030     8.4220 c3         1 MOL       0.064300
     31 C19          7.4400    19.1390     6.6450 c3         1 MOL       0.072700
     32 C20          7.8900    18.4780     5.2890 c3         1 MOL      -0.053700
     33 C21          7.1680    17.2030     4.9680 c3         1 MOL      -0.100600
     34 C22          7.8280    19.3980     4.0800 c3         1 MOL      -0.100600
     35 C23          5.9310    19.3950     6.8040 c          1 MOL       0.627100
     36 O6           5.2650    19.6210     5.7810 o          1 MOL      -0.520000
     37 C24          3.1100    23.4800    10.9080 cc         1 MOL      -0.393000
     38 C25          3.1450    22.0680    10.7220 c          1 MOL       0.705300
     39 O7           2.0910    21.4380    10.8180 o          1 MOL      -0.652100
     40 C26          2.8720    24.3190     9.7980 cd         1 MOL       0.174800
     41 N6           2.6940    23.7930     8.5920 nv         1 MOL      -0.829600
     42 C27          2.8120    25.7330     9.9350 c          1 MOL       0.569500
     43 O8           2.5910    26.4360     8.9430 o          1 MOL      -0.515100
     44 C28          2.9960    26.3340    11.1990 cd         1 MOL      -0.208400
     45 O9           3.4030    26.0630    13.5580 os         1 MOL      -0.371800
     46 C29          3.7680    25.7850    15.9720 ca         1 MOL      -0.240900
     47 C30          3.9610    24.8520    17.0070 ca         1 MOL       0.414200
     48 N7           3.9840    23.5510    16.7530 nb         1 MOL      -0.648000
     49 C31          3.8350    23.0240    15.5520 ca         1 MOL       0.353500
     50 C32          3.8590    21.6390    15.3470 c          1 MOL       0.591600
     51 O10          4.9290    21.1070    15.0780 o          1 MOL      -0.578100
     52 N8           3.4900    23.3400    13.2400 nd         1 MOL      -0.613000
     53 C33          3.2870    24.0810    12.1760 cc         1 MOL       0.452800
     54 C34          3.2360    25.5120    12.3250 cc         1 MOL       0.197400
     55 C35          3.6040    25.2730    14.6420 ca         1 MOL       0.252700
     56 C36          3.6440    23.8590    14.4410 ca         1 MOL       0.183000
     57 C37          2.9160    27.8490    11.3450 c3         1 MOL      -0.046900
     58 C38          3.7380    27.2750    16.3250 c3         1 MOL      -0.048800
     59 H3           2.5200    24.4020     7.8020 hn         1 MOL       0.457300
     60 H4           2.7220    22.7960     8.4500 hn         1 MOL       0.457300
     61 N9           2.7320    20.9310    15.4090 ns         1 MOL      -0.530900
     62 C39          2.7980    19.4770    15.2090 c3         1 MOL       0.024700
     63 C40          1.6750    18.9450    14.3560 c          1 MOL       0.654100
     64 O11          0.5800    19.5240    14.3250 o          1 MOL      -0.668100
     65 C41          2.7320    18.6400    16.4840 c3         1 MOL       0.135100
     66 O12          1.5810    19.1100    17.2180 os         1 MOL      -0.450900
     67 C42          4.0170    18.6680    17.2830 c3         1 MOL      -0.101100
     68 H5           2.0620    21.3440    14.8230 hn         1 MOL       0.332500
     69 N10          1.9630    17.8290    13.6820 ns         1 MOL      -0.544900
     70 C43          0.8970    17.1950    12.9400 c3         1 MOL       0.047700
     71 C44          1.0370    15.6780    12.9410 c3         1 MOL      -0.062700
     72 C45         -0.1060    14.9860    12.2170 c3         1 MOL      -0.104600
     73 C46          1.1280    15.1890    14.3660 c3         1 MOL      -0.104600
     74 C47          0.8310    17.7510    11.5260 c          1 MOL       0.665100
     75 O13          1.7220    17.3960    10.7510 o          1 MOL      -0.660100
     76 H6           2.8540    17.4280    13.6950 hn         1 MOL       0.356500
     77 N11         -0.1050    18.6310    11.1190 n          1 MOL      -0.434800
     78 C48         -1.1820    19.1990    11.9480 c3         1 MOL       0.026700
     79 C49         -2.2150    18.1900    12.4180 c          1 MOL       0.639100
     80 O14         -2.4780    17.2750    11.6330 o          1 MOL      -0.571100
     81 C50         -1.7840    20.2090    11.0040 c3         1 MOL      -0.077400
     82 C51         -1.5670    19.6580     9.6250 c3         1 MOL      -0.094400
     83 C52         -0.1430    19.1980     9.7690 c3         1 MOL       0.087000
     84 N12         -2.7930    18.2260    13.6220 n          1 MOL      -0.450800
     85 C53         -2.5560    19.1250    14.7250 c3         1 MOL       0.022000
     86 C54         -1.8920    18.4400    15.9250 c          1 MOL       0.630100
     87 O15         -1.7480    17.2160    15.9270 o          1 MOL      -0.591100
     88 C55         -3.9530    17.3790    13.8470 c3         1 MOL       0.054300
     89 N13         -1.4650    19.1540    16.9820 n          1 MOL      -0.451800
     90 C56         -1.4910    20.5910    16.9170 c3         1 MOL       0.066300
     91 C57         -0.6830    18.7230    18.1290 c3         1 MOL       0.081700
     92 C58         -1.4650    17.7890    19.1050 c3         1 MOL      -0.071700
     93 C59         -0.6060    17.4800    20.3210 c3         1 MOL      -0.091100
     94 C60         -2.7350    18.4480    19.6310 c3         1 MOL      -0.091100
     95 C61          0.6390    18.1600    17.6090 c          1 MOL       0.611100
     96 O16          0.7310    16.9820    17.2260 o          1 MOL      -0.516000
     97 H7           3.1650    19.6230    10.4100 h1         1 MOL       0.121700
     98 H8           4.0050    18.5720     8.4190 h1         1 MOL       0.094700
     99 H9           3.1470    20.1270     6.7040 hc         1 MOL       0.051367
    100 H10          2.1090    20.1100     8.1490 hc         1 MOL       0.051367
    101 H11          3.2320    21.4630     7.8760 hc         1 MOL       0.051367
    102 H12          6.1590    16.9040    10.9820 h1         1 MOL       0.095700
    103 H13          3.3370    16.2100    11.3940 hc         1 MOL       0.060700
    104 H14          3.6390    13.8630    11.9830 hc         1 MOL       0.047533
    105 H15          5.3450    14.1920    12.3700 hc         1 MOL       0.047533
    106 H16          4.0520    14.9780    13.3070 hc         1 MOL       0.047533
    107 H17          3.7900    14.4480     9.7380 hc         1 MOL       0.047533
    108 H18          4.2220    16.0880     9.1970 hc         1 MOL       0.047533
    109 H19          5.4960    14.9570     9.7100 hc         1 MOL       0.047533
    110 H20          8.3880    17.2770    11.9910 h1         1 MOL       0.111700
    111 H21         10.1610    16.4530    13.1540 hc         1 MOL       0.060700
    112 H22          9.3970    14.8020    13.2840 hc         1 MOL       0.060700
    113 H23          9.0750    17.2290    15.0270 hc         1 MOL       0.056200
    114 H24          9.2260    15.4470    15.4750 hc         1 MOL       0.056200
    115 H25          7.0430    14.9920    14.7500 h1         1 MOL       0.059200
    116 H26          6.8500    16.6820    15.4930 h1         1 MOL       0.059200
    117 H27          9.5480    16.5850     9.1350 h1         1 MOL       0.083200
    118 H28          8.7070    17.4720    10.3300 h1         1 MOL       0.083200
    119 H29          8.1710    14.6960     8.1740 h1         1 MOL       0.053367
    120 H30          8.7300    13.6270     9.4830 h1         1 MOL       0.053367
    121 H31          6.9890    13.9090     9.2470 h1         1 MOL       0.053367
    122 H32          9.3400    20.1470     7.7760 h1         1 MOL       0.048700
    123 H33          8.7130    19.6730     9.3730 h1         1 MOL       0.048700
    124 H34          9.9950    18.7110     8.5990 h1         1 MOL       0.048700
    125 H35          7.8850    20.1340     6.6240 h1         1 MOL       0.077700
    126 H36          8.9390    18.2100     5.4140 hc         1 MOL       0.051700
    127 H37          7.5320    16.8080     4.0200 hc         1 MOL       0.045700
    128 H38          7.3480    16.4740     5.7580 hc         1 MOL       0.045700
    129 H39          6.0980    17.4000     4.8920 hc         1 MOL       0.045700
    130 H40          8.1560    18.8560     3.1930 hc         1 MOL       0.045700
    131 H41          6.8040    19.7420     3.9370 hc         1 MOL       0.045700
    132 H42          8.4800    20.2560     4.2420 hc         1 MOL       0.045700
    133 H43          4.0930    25.1930    18.0230 h4         1 MOL       0.037100
    134 H44          3.0830    28.1230    12.3870 hc         1 MOL       0.058700
    135 H45          3.6780    28.3160    10.7200 hc         1 MOL       0.058700
    136 H46          1.9300    28.1930    11.0330 hc         1 MOL       0.058700
    137 H47          3.5810    27.8600    15.4190 hc         1 MOL       0.057367
    138 H48          2.9250    27.4670    17.0260 hc         1 MOL       0.057367
    139 H49          4.6860    27.5600    16.7820 hc         1 MOL       0.057367
    140 H50          3.7380    19.2500    14.7060 h1         1 MOL       0.131700
    141 H51          2.5430    17.6060    16.1940 h1         1 MOL       0.105700
    142 H52          3.9040    18.0540    18.1760 hc         1 MOL       0.051700
    143 H53          4.8320    18.2770    16.6750 hc         1 MOL       0.051700
    144 H54          4.2420    19.6940    17.5750 hc         1 MOL       0.051700
    145 H55         -0.0420    17.4410    13.4360 h1         1 MOL       0.089700
    146 H56          1.9670    15.4220    12.4330 hc         1 MOL       0.058700
    147 H57          0.0440    13.9070    12.2480 hc         1 MOL       0.049033
    148 H58         -1.0490    15.2350    12.7040 hc         1 MOL       0.049033
    149 H59         -0.1340    15.3190    11.1790 hc         1 MOL       0.049033
    150 H60          1.2280    14.1040    14.3730 hc         1 MOL       0.049033
    151 H61          1.9960    15.6370    14.8500 hc         1 MOL       0.049033
    152 H62          0.2250    15.4730    14.9060 hc         1 MOL       0.049033
    153 H63         -0.7520    19.7120    12.8080 h1         1 MOL       0.103700
    154 H64         -1.2550    21.1570    11.1020 hc         1 MOL       0.057700
    155 H65         -2.8540    20.2920    11.1970 hc         1 MOL       0.057700
    156 H66         -1.6040    20.4770     8.9060 hc         1 MOL       0.062200
    157 H67         -2.2080    18.7880     9.4860 hc         1 MOL       0.062200
    158 H68          0.0560    18.4110     9.0420 h1         1 MOL       0.065700
    159 H69          0.5210    20.0610     9.7220 h1         1 MOL       0.065700
    160 H70         -3.5000    19.5700    15.0390 h1         1 MOL       0.084200
    161 H71         -1.9310    19.9530    14.3890 h1         1 MOL       0.084200
    162 H72         -4.3110    17.5160    14.8670 h1         1 MOL       0.053367
    163 H73         -4.7420    17.6490    13.1460 h1         1 MOL       0.053367
    164 H74         -3.6760    16.3350    13.6970 h1         1 MOL       0.053367
    165 H75         -1.1130    21.0040    17.8520 h1         1 MOL       0.049700
    166 H76         -0.8650    20.9290    16.0920 h1         1 MOL       0.049700
    167 H77         -2.5150    20.9300    16.7580 h1         1 MOL       0.049700
    168 H78         -0.4360    19.6230    18.6920 h1         1 MOL       0.080700
    169 H79         -1.7210    16.8610    18.5940 hc         1 MOL       0.100700
    170 H80         -1.1560    16.8280    20.9990 hc         1 MOL       0.038367
    171 H81          0.3100    16.9820    20.0030 hc         1 MOL       0.038367
    172 H82         -0.3550    18.4080    20.8340 hc         1 MOL       0.038367
    173 H83         -3.2480    17.7630    20.3060 hc         1 MOL       0.038367
    174 H84         -2.4760    19.3600    20.1680 hc         1 MOL       0.038367
    175 H85         -3.3910    18.6920    18.7960 hc         1 MOL       0.038367
@<TRIPOS>BOND
     1     1     2 1   
     2     1     8 1   
     3     1    38 1   
     4     2     3 1   
     5     2     5 1   
     6     2    97 1   
     7     3     4 2   
     8     3     9 1   
     9     5     6 1   
    10     5     7 1   
    11     5    98 1   
    12     6    35 1   
    13     7    99 1   
    14     7   100 1   
    15     7   101 1   
    16     9    10 1   
    17     9    16 1   
    18    10    11 1   
    19    10    14 1   
    20    10   102 1   
    21    11    12 1   
    22    11    13 1   
    23    11   103 1   
    24    12   104 1   
    25    12   105 1   
    26    12   106 1   
    27    13   107 1   
    28    13   108 1   
    29    13   109 1   
    30    14    15 2   
    31    14    17 1   
    32    17    18 1   
    33    17    23 1   
    34    18    19 1   
    35    18    21 1   
    36    18   110 1   
    37    19    20 2   
    38    19    24 1   
    39    21    22 1   
    40    21   111 1   
    41    21   112 1   
    42    22    23 1   
    43    22   113 1   
    44    22   114 1   
    45    23   115 1   
    46    23   116 1   
    47    24    25 1   
    48    24    28 1   
    49    25    26 1   
    50    25   117 1   
    51    25   118 1   
    52    26    27 2   
    53    26    29 1   
    54    28   119 1   
    55    28   120 1   
    56    28   121 1   
    57    29    30 1   
    58    29    31 1   
    59    30   122 1   
    60    30   123 1   
    61    30   124 1   
    62    31    32 1   
    63    31    35 1   
    64    31   125 1   
    65    32    33 1   
    66    32    34 1   
    67    32   126 1   
    68    33   127 1   
    69    33   128 1   
    70    33   129 1   
    71    34   130 1   
    72    34   131 1   
    73    34   132 1   
    74    35    36 2   
    75    37    38 1   
    76    37    40 2   
    77    37    53 1   
    78    38    39 2   
    79    40    41 1   
    80    40    42 1   
    81    41    59 1   
    82    41    60 1   
    83    42    43 2   
    84    42    44 1   
    85    44    54 2   
    86    44    57 1   
    87    45    54 1   
    88    45    55 1   
    89    46    47 ar  
    90    46    55 ar  
    91    46    58 1   
    92    47    48 ar  
    93    47   133 1   
    94    48    49 ar  
    95    49    50 1   
    96    49    56 ar  
    97    50    51 2   
    98    50    61 1   
    99    52    53 2   
   100    52    56 1   
   101    53    54 1   
   102    55    56 ar  
   103    57   134 1   
   104    57   135 1   
   105    57   136 1   
   106    58   137 1   
   107    58   138 1   
   108    58   139 1   
   109    61    62 1   
   110    61    68 1   
   111    62    63 1   
   112    62    65 1   
   113    62   140 1   
   114    63    64 2   
   115    63    69 1   
   116    65    66 1   
   117    65    67 1   
   118    65   141 1   
   119    66    95 1   
   120    67   142 1   
   121    67   143 1   
   122    67   144 1   
   123    69    70 1   
   124    69    76 1   
   125    70    71 1   
   126    70    74 1   
   127    70   145 1   
   128    71    72 1   
   129    71    73 1   
   130    71   146 1   
   131    72   147 1   
   132    72   148 1   
   133    72   149 1   
   134    73   150 1   
   135    73   151 1   
   136    73   152 1   
   137    74    75 2   
   138    74    77 1   
   139    77    78 1   
   140    77    83 1   
   141    78    79 1   
   142    78    81 1   
   143    78   153 1   
   144    79    80 2   
   145    79    84 1   
   146    81    82 1   
   147    81   154 1   
   148    81   155 1   
   149    82    83 1   
   150    82   156 1   
   151    82   157 1   
   152    83   158 1   
   153    83   159 1   
   154    84    85 1   
   155    84    88 1   
   156    85    86 1   
   157    85   160 1   
   158    85   161 1   
   159    86    87 2   
   160    86    89 1   
   161    88   162 1   
   162    88   163 1   
   163    88   164 1   
   164    89    90 1   
   165    89    91 1   
   166    90   165 1   
   167    90   166 1   
   168    90   167 1   
   169    91    92 1   
   170    91    95 1   
   171    91   168 1   
   172    92    93 1   
   173    92    94 1   
   174    92   169 1   
   175    93   170 1   
   176    93   171 1   
   177    93   172 1   
   178    94   173 1   
   179    94   174 1   
   180    94   175 1   
   181    95    96 2   
@<TRIPOS>SUBSTRUCTURE
     1 MOL         1 TEMP              0 ****  ****    0 ROOT
