Structure214
  -OEChem-07142314483D

176182  0     1  0  0  0  0  0999 V2000
    4.0220   21.3730    9.9950 N   0  0  0  0  0  0  0  0  0  0  0  0
    3.8070   19.9850    9.5820 C   0  0  2  0  0  0  0  0  0  0  0  0
    4.7710   19.0560   10.2740 C   0  0  0  0  0  0  0  0  0  0  0  0
    5.8600   19.4670   10.6650 O   0  0  0  0  0  0  0  0  0  0  0  0
    3.9590   19.7390    8.0720 C   0  0  2  0  0  0  0  0  0  0  0  0
    5.2200   20.3180    7.6790 O   0  0  0  0  0  0  0  0  0  0  0  0
    2.8550   20.3630    7.2380 C   0  0  0  0  0  0  0  0  0  0  0  0
    4.6470   21.4060   10.7550 H   0  0  0  0  0  0  0  0  0  0  0  0
    4.3420   17.8070   10.4490 N   0  0  0  0  0  0  0  0  0  0  0  0
    5.2480   16.7400   10.8440 C   0  0  2  0  0  0  0  0  0  0  0  0
    4.8040   15.4080   10.1890 C   0  0  0  0  0  0  0  0  0  0  0  0
    5.7550   14.2510   10.4660 C   0  0  0  0  0  0  0  0  0  0  0  0
    4.5880   15.5350    8.6840 C   0  0  0  0  0  0  0  0  0  0  0  0
    5.3540   16.6310   12.3660 C   0  0  0  0  0  0  0  0  0  0  0  0
    4.3740   16.2150   12.9890 O   0  0  0  0  0  0  0  0  0  0  0  0
    3.3970   17.5990   10.3220 H   0  0  0  0  0  0  0  0  0  0  0  0
    6.4490   17.0080   13.0450 N   0  0  0  0  0  0  0  0  0  0  0  0
    7.6610   17.5990   12.4710 C   0  0  2  0  0  0  0  0  0  0  0  0
    8.5190   16.6320   11.6530 C   0  0  0  0  0  0  0  0  0  0  0  0
    8.6370   15.4720   12.0550 O   0  0  0  0  0  0  0  0  0  0  0  0
    8.4140   18.0480   13.7020 C   0  0  0  0  0  0  0  0  0  0  0  0
    7.3780   18.1820   14.7790 C   0  0  0  0  0  0  0  0  0  0  0  0
    6.5550   16.9490   14.4970 C   0  0  0  0  0  0  0  0  0  0  0  0
    9.1400   17.0450   10.5330 N   0  0  0  0  0  0  0  0  0  0  0  0
    9.1120   18.3940    9.9830 C   0  0  0  0  0  0  0  0  0  0  0  0
    8.2050   18.5580    8.7630 C   0  0  0  0  0  0  0  0  0  0  0  0
    7.3950   17.6630    8.5090 O   0  0  0  0  0  0  0  0  0  0  0  0
    9.9450   16.0920    9.7770 C   0  0  0  0  0  0  0  0  0  0  0  0
    8.2680   19.6540    7.9820 N   0  0  0  0  0  0  0  0  0  0  0  0
    9.0810   20.7840    8.4140 C   0  0  0  0  0  0  0  0  0  0  0  0
    7.5090   19.9260    6.7620 C   0  0  1  0  0  0  0  0  0  0  0  0
    8.3020   19.3900    5.5180 C   0  0  0  0  0  0  0  0  0  0  0  0
    8.2990   17.8710    5.3400 C   0  0  0  0  0  0  0  0  0  0  0  0
    7.8980   20.1290    4.2480 C   0  0  0  0  0  0  0  0  0  0  0  0
    6.0110   19.5790    6.8080 C   0  0  0  0  0  0  0  0  0  0  0  0
    5.4620   18.9500    5.8980 O   0  0  0  0  0  0  0  0  0  0  0  0
    3.0020   23.4950   10.4950 C   0  0  0  0  0  0  0  0  0  0  0  0
    2.9440   22.0890   10.3220 C   0  0  0  0  0  0  0  0  0  0  0  0
    1.8760   21.5090   10.5130 O   0  0  0  0  0  0  0  0  0  0  0  0
    2.7660   24.4300    9.4400 C   0  0  0  0  0  0  0  0  0  0  0  0
    2.4730   24.0530    8.1910 N   0  0  0  0  0  0  0  0  0  0  0  0
    2.8370   25.8240    9.7010 C   0  0  0  0  0  0  0  0  0  0  0  0
    2.6300   26.6200    8.7770 O   0  0  0  0  0  0  0  0  0  0  0  0
    3.1350   26.3050   11.0030 C   0  0  0  0  0  0  0  0  0  0  0  0
    3.6450   25.8010   13.3050 O   0  0  0  0  0  0  0  0  0  0  0  0
    4.1570   25.3450   15.6210 C   0  0  0  0  0  0  0  0  0  0  0  0
    4.3760   24.3840   16.6310 C   0  0  0  0  0  0  0  0  0  0  0  0
    4.3020   23.0030   16.3440 C   0  0  0  0  0  0  0  0  0  0  0  0
    4.5280   22.1370   17.3500 F   0  0  0  0  0  0  0  0  0  0  0  0
    4.0000   22.5590   15.0300 C   0  0  0  0  0  0  0  0  0  0  0  0
    3.9130   21.1880   14.6940 C   0  0  0  0  0  0  0  0  0  0  0  0
    4.9290   20.6150   14.2850 O   0  0  0  0  0  0  0  0  0  0  0  0
    3.5080   23.1480   12.7840 N   0  0  0  0  0  0  0  0  0  0  0  0
    3.2950   23.9870   11.7900 C   0  0  0  0  0  0  0  0  0  0  0  0
    3.3630   25.3850   12.0460 C   0  0  0  0  0  0  0  0  0  0  0  0
    3.8630   24.9180   14.3080 C   0  0  0  0  0  0  0  0  0  0  0  0
    3.7850   23.5270   14.0160 C   0  0  0  0  0  0  0  0  0  0  0  0
    3.2070   27.8010   11.2850 C   0  0  0  0  0  0  0  0  0  0  0  0
    4.2410   26.8250   15.9620 C   0  0  0  0  0  0  0  0  0  0  0  0
    2.3140   24.7600    7.4800 H   0  0  0  0  0  0  0  0  0  0  0  0
    2.4030   23.0770    7.9420 H   0  0  0  0  0  0  0  0  0  0  0  0
    2.7400   20.5300   14.7760 N   0  0  0  0  0  0  0  0  0  0  0  0
    2.7850   19.0690   14.6220 C   0  0  2  0  0  0  0  0  0  0  0  0
    1.6240   18.5200   13.8200 C   0  0  0  0  0  0  0  0  0  0  0  0
    0.5380   19.0920   13.8190 O   0  0  0  0  0  0  0  0  0  0  0  0
    2.8240   18.2650   15.9460 C   0  0  2  0  0  0  0  0  0  0  0  0
    1.6790   18.6530   16.7200 O   0  0  0  0  0  0  0  0  0  0  0  0
    4.0460   18.4820   16.8180 C   0  0  0  0  0  0  0  0  0  0  0  0
    2.0770   20.9350   14.1780 H   0  0  0  0  0  0  0  0  0  0  0  0
    1.8300   17.3880   13.1540 N   0  0  0  0  0  0  0  0  0  0  0  0
    0.7610   16.7020   12.4480 C   0  0  2  0  0  0  0  0  0  0  0  0
    1.0430   15.1800   12.4110 C   0  0  0  0  0  0  0  0  0  0  0  0
   -0.0470   14.3790   11.7130 C   0  0  0  0  0  0  0  0  0  0  0  0
    1.2880   14.5940   13.7930 C   0  0  0  0  0  0  0  0  0  0  0  0
    0.6680   17.3000   11.0470 C   0  0  0  0  0  0  0  0  0  0  0  0
    1.6160   17.1150   10.2760 O   0  0  0  0  0  0  0  0  0  0  0  0
    2.7280   17.0100   13.1170 H   0  0  0  0  0  0  0  0  0  0  0  0
   -0.3680   18.0600   10.6640 N   0  0  0  0  0  0  0  0  0  0  0  0
   -1.5230   18.4330   11.4940 C   0  0  2  0  0  0  0  0  0  0  0  0
   -2.5210   17.3280   11.8590 C   0  0  0  0  0  0  0  0  0  0  0  0
   -2.6920   16.4010   11.0580 O   0  0  0  0  0  0  0  0  0  0  0  0
   -2.1760   19.5080   10.6560 C   0  0  0  0  0  0  0  0  0  0  0  0
   -1.8950   19.0880    9.2380 C   0  0  0  0  0  0  0  0  0  0  0  0
   -0.4330   18.7230    9.3620 C   0  0  0  0  0  0  0  0  0  0  0  0
   -3.1520   17.3420   13.0460 N   0  0  0  0  0  0  0  0  0  0  0  0
   -2.9290   18.2840   14.1350 C   0  0  0  0  0  0  0  0  0  0  0  0
   -1.9670   17.7650   15.2090 C   0  0  0  0  0  0  0  0  0  0  0  0
   -1.5610   16.6070   15.1220 O   0  0  0  0  0  0  0  0  0  0  0  0
   -4.2140   16.3750   13.2900 C   0  0  0  0  0  0  0  0  0  0  0  0
   -1.5630   18.5550   16.2260 N   0  0  0  0  0  0  0  0  0  0  0  0
   -1.7610   19.9900   16.1100 C   0  0  0  0  0  0  0  0  0  0  0  0
   -0.6990   18.2060   17.3530 C   0  0  1  0  0  0  0  0  0  0  0  0
   -1.3930   17.2290   18.3530 C   0  0  0  0  0  0  0  0  0  0  0  0
   -0.5220   16.9910   19.5830 C   0  0  0  0  0  0  0  0  0  0  0  0
   -2.7420   17.7520   18.8290 C   0  0  0  0  0  0  0  0  0  0  0  0
    0.6820   17.7080   16.9180 C   0  0  0  0  0  0  0  0  0  0  0  0
    0.8850   16.5240   16.6390 O   0  0  0  0  0  0  0  0  0  0  0  0
    2.7956   19.6991    9.8709 H   0  0  0  0  0  0  0  0  0  0  0  0
    3.9848   18.6654    7.8854 H   0  0  0  0  0  0  0  0  0  0  0  0
    3.0294   20.1476    6.1838 H   0  0  0  0  0  0  0  0  0  0  0  0
    1.8930   19.9481    7.5388 H   0  0  0  0  0  0  0  0  0  0  0  0
    2.8487   21.4421    7.3916 H   0  0  0  0  0  0  0  0  0  0  0  0
    6.2378   16.9855   10.4591 H   0  0  0  0  0  0  0  0  0  0  0  0
    3.8423   15.1421   10.6277 H   0  0  0  0  0  0  0  0  0  0  0  0
    5.3836   13.3499    9.9779 H   0  0  0  0  0  0  0  0  0  0  0  0
    6.7445   14.4924   10.0777 H   0  0  0  0  0  0  0  0  0  0  0  0
    5.8185   14.0815   11.5409 H   0  0  0  0  0  0  0  0  0  0  0  0
    4.2782   14.5719    8.2783 H   0  0  0  0  0  0  0  0  0  0  0  0
    3.8137   16.2769    8.4889 H   0  0  0  0  0  0  0  0  0  0  0  0
    5.5176   15.8470    8.2081 H   0  0  0  0  0  0  0  0  0  0  0  0
    7.3977   18.4644   11.8628 H   0  0  0  0  0  0  0  0  0  0  0  0
    8.8679   19.0209   13.5136 H   0  0  0  0  0  0  0  0  0  0  0  0
    9.1337   17.2802   13.9859 H   0  0  0  0  0  0  0  0  0  0  0  0
    6.7722   19.0663   14.5811 H   0  0  0  0  0  0  0  0  0  0  0  0
    7.8596   18.0730   15.7507 H   0  0  0  0  0  0  0  0  0  0  0  0
    7.1278   16.0652   14.7778 H   0  0  0  0  0  0  0  0  0  0  0  0
    5.5638   17.0737   14.9329 H   0  0  0  0  0  0  0  0  0  0  0  0
   10.1256   18.6991    9.7231 H   0  0  0  0  0  0  0  0  0  0  0  0
    8.8033   19.0942   10.7593 H   0  0  0  0  0  0  0  0  0  0  0  0
   10.3733   16.5879    8.9059 H   0  0  0  0  0  0  0  0  0  0  0  0
   10.7475   15.7116   10.4090 H   0  0  0  0  0  0  0  0  0  0  0  0
    9.3166   15.2634    9.4504 H   0  0  0  0  0  0  0  0  0  0  0  0
    9.0211   21.5801    7.6719 H   0  0  0  0  0  0  0  0  0  0  0  0
    8.7128   21.1521    9.3716 H   0  0  0  0  0  0  0  0  0  0  0  0
   10.1180   20.4660    8.5220 H   0  0  0  0  0  0  0  0  0  0  0  0
    7.5362   21.0107    6.6581 H   0  0  0  0  0  0  0  0  0  0  0  0
    9.3426   19.6614    5.6956 H   0  0  0  0  0  0  0  0  0  0  0  0
    8.8743   17.6075    4.4525 H   0  0  0  0  0  0  0  0  0  0  0  0
    8.7471   17.4012    6.2156 H   0  0  0  0  0  0  0  0  0  0  0  0
    7.2734   17.5202    5.2249 H   0  0  0  0  0  0  0  0  0  0  0  0
    8.4636   19.7363    3.4030 H   0  0  0  0  0  0  0  0  0  0  0  0
    6.8322   19.9878    4.0683 H   0  0  0  0  0  0  0  0  0  0  0  0
    8.1088   21.1922    4.3630 H   0  0  0  0  0  0  0  0  0  0  0  0
    4.6034   24.7012   17.6380 H   0  0  0  0  0  0  0  0  0  0  0  0
    3.4464   27.9620   12.3361 H   0  0  0  0  0  0  0  0  0  0  0  0
    3.9809   28.2516   10.6635 H   0  0  0  0  0  0  0  0  0  0  0  0
    2.2453   28.2609   11.0573 H   0  0  0  0  0  0  0  0  0  0  0  0
    4.0456   27.4162   15.0673 H   0  0  0  0  0  0  0  0  0  0  0  0
    3.5002   27.0653   16.7246 H   0  0  0  0  0  0  0  0  0  0  0  0
    5.2375   27.0556   16.3387 H   0  0  0  0  0  0  0  0  0  0  0  0
    3.6964   18.8309   14.0736 H   0  0  0  0  0  0  0  0  0  0  0  0
    2.7449   17.2032   15.7128 H   0  0  0  0  0  0  0  0  0  0  0  0
    3.9654   17.8698   17.7162 H   0  0  0  0  0  0  0  0  0  0  0  0
    4.9421   18.1994   16.2655 H   0  0  0  0  0  0  0  0  0  0  0  0
    4.1099   19.5330   17.0998 H   0  0  0  0  0  0  0  0  0  0  0  0
   -0.1791   16.8762   12.9715 H   0  0  0  0  0  0  0  0  0  0  0  0
    1.9593   15.0391   11.8377 H   0  0  0  0  0  0  0  0  0  0  0  0
    0.2155   13.3211   11.7237 H   0  0  0  0  0  0  0  0  0  0  0  0
   -0.9940   14.5231   12.2330 H   0  0  0  0  0  0  0  0  0  0  0  0
   -0.1441   14.7183   10.6817 H   0  0  0  0  0  0  0  0  0  0  0  0
    1.4802   13.5246   13.7059 H   0  0  0  0  0  0  0  0  0  0  0  0
    2.1504   15.0818   14.2474 H   0  0  0  0  0  0  0  0  0  0  0  0
    0.4093   14.7551   14.4175 H   0  0  0  0  0  0  0  0  0  0  0  0
   -1.1560   18.8865   12.4148 H   0  0  0  0  0  0  0  0  0  0  0  0
   -1.6896   20.4635   10.8522 H   0  0  0  0  0  0  0  0  0  0  0  0
   -3.2521   19.4963   10.8291 H   0  0  0  0  0  0  0  0  0  0  0  0
   -1.9905   19.9555    8.5849 H   0  0  0  0  0  0  0  0  0  0  0  0
   -2.4680   18.1883    9.0137 H   0  0  0  0  0  0  0  0  0  0  0  0
   -0.1733   18.0082    8.5811 H   0  0  0  0  0  0  0  0  0  0  0  0
    0.1639   19.6345    9.3924 H   0  0  0  0  0  0  0  0  0  0  0  0
   -3.8839   18.5363   14.5962 H   0  0  0  0  0  0  0  0  0  0  0  0
   -2.5473   19.2212   13.7300 H   0  0  0  0  0  0  0  0  0  0  0  0
   -4.6168   16.5220   14.2921 H   0  0  0  0  0  0  0  0  0  0  0  0
   -5.0078   16.5135   12.5560 H   0  0  0  0  0  0  0  0  0  0  0  0
   -3.8131   15.3650   13.2047 H   0  0  0  0  0  0  0  0  0  0  0  0
   -1.3846   20.4829   17.0064 H   0  0  0  0  0  0  0  0  0  0  0  0
   -1.2229   20.3622   15.2382 H   0  0  0  0  0  0  0  0  0  0  0  0
   -2.8242   20.2027   15.9982 H   0  0  0  0  0  0  0  0  0  0  0  0
   -0.5284   19.1318   17.9025 H   0  0  0  0  0  0  0  0  0  0  0  0
   -1.5501   16.2744   17.8508 H   0  0  0  0  0  0  0  0  0  0  0  0
   -1.0306   16.3067   20.2621 H   0  0  0  0  0  0  0  0  0  0  0  0
    0.4298   16.5573   19.2764 H   0  0  0  0  0  0  0  0  0  0  0  0
   -0.3422   17.9388   20.0904 H   0  0  0  0  0  0  0  0  0  0  0  0
   -3.1852   17.0374   19.5226 H   0  0  0  0  0  0  0  0  0  0  0  0
   -2.6042   18.7088   19.3327 H   0  0  0  0  0  0  0  0  0  0  0  0
   -3.4035   17.8847   17.9729 H   0  0  0  0  0  0  0  0  0  0  0  0
  1  2  1  0  0  0  0
  1  8  1  0  0  0  0
  1 38  1  0  0  0  0
  2  3  1  0  0  0  0
  2  5  1  0  0  0  0
  2 98  1  0  0  0  0
  3  4  2  0  0  0  0
  3  9  1  0  0  0  0
  5  6  1  0  0  0  0
  5  7  1  0  0  0  0
  5 99  1  0  0  0  0
  6 35  1  0  0  0  0
  7100  1  0  0  0  0
  7101  1  0  0  0  0
  7102  1  0  0  0  0
  9 10  1  0  0  0  0
  9 16  1  0  0  0  0
 10 11  1  0  0  0  0
 10 14  1  0  0  0  0
 10103  1  0  0  0  0
 11 12  1  0  0  0  0
 11 13  1  0  0  0  0
 11104  1  0  0  0  0
 12105  1  0  0  0  0
 12106  1  0  0  0  0
 12107  1  0  0  0  0
 13108  1  0  0  0  0
 13109  1  0  0  0  0
 13110  1  0  0  0  0
 14 15  2  0  0  0  0
 14 17  1  0  0  0  0
 17 18  1  0  0  0  0
 17 23  1  0  0  0  0
 18 19  1  0  0  0  0
 18 21  1  0  0  0  0
 18111  1  0  0  0  0
 19 20  2  0  0  0  0
 19 24  1  0  0  0  0
 21 22  1  0  0  0  0
 21112  1  0  0  0  0
 21113  1  0  0  0  0
 22 23  1  0  0  0  0
 22114  1  0  0  0  0
 22115  1  0  0  0  0
 23116  1  0  0  0  0
 23117  1  0  0  0  0
 24 25  1  0  0  0  0
 24 28  1  0  0  0  0
 25 26  1  0  0  0  0
 25118  1  0  0  0  0
 25119  1  0  0  0  0
 26 27  2  0  0  0  0
 26 29  1  0  0  0  0
 28120  1  0  0  0  0
 28121  1  0  0  0  0
 28122  1  0  0  0  0
 29 30  1  0  0  0  0
 29 31  1  0  0  0  0
 30123  1  0  0  0  0
 30124  1  0  0  0  0
 30125  1  0  0  0  0
 31 32  1  0  0  0  0
 31 35  1  0  0  0  0
 31126  1  0  0  0  0
 32 33  1  0  0  0  0
 32 34  1  0  0  0  0
 32127  1  0  0  0  0
 33128  1  0  0  0  0
 33129  1  0  0  0  0
 33130  1  0  0  0  0
 34131  1  0  0  0  0
 34132  1  0  0  0  0
 34133  1  0  0  0  0
 35 36  2  0  0  0  0
 37 38  1  0  0  0  0
 37 40  2  0  0  0  0
 37 54  1  0  0  0  0
 38 39  2  0  0  0  0
 40 41  1  0  0  0  0
 40 42  1  0  0  0  0
 41 60  1  0  0  0  0
 41 61  1  0  0  0  0
 42 43  2  0  0  0  0
 42 44  1  0  0  0  0
 44 55  2  0  0  0  0
 44 58  1  0  0  0  0
 45 55  1  0  0  0  0
 45 56  1  0  0  0  0
 46 47  2  0  0  0  0
 46 56  1  0  0  0  0
 46 59  1  0  0  0  0
 47 48  1  0  0  0  0
 47134  1  0  0  0  0
 48 49  1  0  0  0  0
 48 50  2  0  0  0  0
 50 51  1  0  0  0  0
 50 57  1  0  0  0  0
 51 52  2  0  0  0  0
 51 62  1  0  0  0  0
 53 54  2  0  0  0  0
 53 57  1  0  0  0  0
 54 55  1  0  0  0  0
 56 57  2  0  0  0  0
 58135  1  0  0  0  0
 58136  1  0  0  0  0
 58137  1  0  0  0  0
 59138  1  0  0  0  0
 59139  1  0  0  0  0
 59140  1  0  0  0  0
 62 63  1  0  0  0  0
 62 69  1  0  0  0  0
 63 64  1  0  0  0  0
 63 66  1  0  0  0  0
 63141  1  0  0  0  0
 64 65  2  0  0  0  0
 64 70  1  0  0  0  0
 66 67  1  0  0  0  0
 66 68  1  0  0  0  0
 66142  1  0  0  0  0
 67 96  1  0  0  0  0
 68143  1  0  0  0  0
 68144  1  0  0  0  0
 68145  1  0  0  0  0
 70 71  1  0  0  0  0
 70 77  1  0  0  0  0
 71 72  1  0  0  0  0
 71 75  1  0  0  0  0
 71146  1  0  0  0  0
 72 73  1  0  0  0  0
 72 74  1  0  0  0  0
 72147  1  0  0  0  0
 73148  1  0  0  0  0
 73149  1  0  0  0  0
 73150  1  0  0  0  0
 74151  1  0  0  0  0
 74152  1  0  0  0  0
 74153  1  0  0  0  0
 75 76  2  0  0  0  0
 75 78  1  0  0  0  0
 78 79  1  0  0  0  0
 78 84  1  0  0  0  0
 79 80  1  0  0  0  0
 79 82  1  0  0  0  0
 79154  1  0  0  0  0
 80 81  2  0  0  0  0
 80 85  1  0  0  0  0
 82 83  1  0  0  0  0
 82155  1  0  0  0  0
 82156  1  0  0  0  0
 83 84  1  0  0  0  0
 83157  1  0  0  0  0
 83158  1  0  0  0  0
 84159  1  0  0  0  0
 84160  1  0  0  0  0
 85 86  1  0  0  0  0
 85 89  1  0  0  0  0
 86 87  1  0  0  0  0
 86161  1  0  0  0  0
 86162  1  0  0  0  0
 87 88  2  0  0  0  0
 87 90  1  0  0  0  0
 89163  1  0  0  0  0
 89164  1  0  0  0  0
 89165  1  0  0  0  0
 90 91  1  0  0  0  0
 90 92  1  0  0  0  0
 91166  1  0  0  0  0
 91167  1  0  0  0  0
 91168  1  0  0  0  0
 92 93  1  0  0  0  0
 92 96  1  0  0  0  0
 92169  1  0  0  0  0
 93 94  1  0  0  0  0
 93 95  1  0  0  0  0
 93170  1  0  0  0  0
 94171  1  0  0  0  0
 94172  1  0  0  0  0
 94173  1  0  0  0  0
 95174  1  0  0  0  0
 95175  1  0  0  0  0
 95176  1  0  0  0  0
 96 97  2  0  0  0  0
M  END
$$$$
