Structure200
                    3D
 Structure written by MMmdl.
 79 84  0  0  1  0            999 V2000
    5.2520  -10.6520    3.6520 C   0  0  0  0  0  0
    5.1240  -10.8640    5.0130 C   0  0  0  0  0  0
    3.8940  -11.1910    5.5610 C   0  0  0  0  0  0
    2.7870  -11.3030    4.7220 C   0  0  0  0  0  0
    2.9210  -11.0900    3.3470 C   0  0  0  0  0  0
    4.1620  -10.7650    2.8190 C   0  0  0  0  0  0
    1.8070  -11.2160    2.5950 N   0  0  0  0  0  0
    4.2580  -10.5650    1.4680 N   0  0  0  0  0  0
    1.9470  -11.0100    1.2690 C   0  0  0  0  0  0
    3.1520  -10.6850    0.6730 C   0  0  0  0  0  0
    0.8040  -11.1350    0.4790 C   0  0  0  0  0  0
    0.8740  -10.9370   -0.9000 C   0  0  0  0  0  0
    2.0930  -10.6120   -1.4840 C   0  0  0  0  0  0
    3.2110  -10.4870   -0.7270 C   0  0  0  0  0  0
    4.5420  -10.1430   -1.3900 C   0  0  0  0  0  0
    6.6130  -10.2700    3.1290 C   0  0  0  0  0  0
    7.6150  -10.9270    3.4030 O   0  0  0  0  0  0
    6.6670   -9.2110    2.3710 N   0  0  0  0  0  0
    7.7110   -8.1720    2.6130 C   0  0  0  0  0  0
    7.7530   -7.3480    1.3210 C   0  0  0  0  0  0
    6.5500   -6.4580    1.3730 N   0  0  0  0  0  0
    6.2280   -6.1430   -0.0600 C   0  0  0  0  0  0
    3.9480   -2.1710   -2.0970 N   0  0  0  0  0  0
    3.1010   -1.3400   -2.6460 C   0  0  0  0  0  0
    3.4310   -0.5690   -3.5450 O   0  0  0  0  0  0
    1.6910   -1.3780   -2.1100 C   0  0  0  0  0  0
    0.6490   -1.4350   -3.0190 C   0  0  0  0  0  0
   -0.6660   -1.5120   -2.5800 C   0  0  0  0  0  0
   -0.9210   -1.5290   -1.2080 C   0  0  0  0  0  0
    0.1370   -1.4690   -0.2950 C   0  0  0  0  0  0
   -0.1790   -1.4900    1.0200 N   0  0  0  0  0  0
    0.8550   -1.4310    1.8890 C   0  0  0  0  0  0
    2.1770   -1.3520    1.4910 C   0  0  0  0  0  0
    2.4540   -1.3330    0.1550 N   0  0  0  0  0  0
    1.4420   -1.3930   -0.7600 C   0  0  0  0  0  0
    3.2020   -1.2920    2.4620 C   0  0  0  0  0  0
    2.8950   -1.3140    3.7790 C   0  0  0  0  0  0
    1.5760   -1.4000    4.1960 C   0  0  0  0  0  0
    0.5540   -1.4540    3.2510 C   0  0  0  0  0  0
    4.6590   -1.2070    2.0210 C   0  0  0  0  0  0
    5.2220   -1.6670   -1.5020 C   0  0  0  0  0  0
    6.2410   -2.8110   -1.6720 C   0  0  0  0  0  0
    5.6380   -4.0250   -1.0250 N   0  3  0  0  0  0
    6.7690   -4.7290   -0.3500 C   0  0  0  0  0  0
    5.9865  -10.7750    5.6568 H   0  0  0  0  0  0
    3.8031  -11.3552    6.6246 H   0  0  0  0  0  0
    1.8209  -11.5552    5.1335 H   0  0  0  0  0  0
   -0.1424  -11.3865    0.9345 H   0  0  0  0  0  0
   -0.0147  -11.0365   -1.5056 H   0  0  0  0  0  0
    2.1562  -10.4564   -2.5509 H   0  0  0  0  0  0
    4.3946  -10.0281   -2.4639 H   0  0  0  0  0  0
    4.9253   -9.2110   -0.9746 H   0  0  0  0  0  0
    5.2580  -10.9439   -1.2057 H   0  0  0  0  0  0
    6.0023   -9.0933    1.6197 H   0  0  0  0  0  0
    8.6754   -8.6571    2.7637 H   0  0  0  0  0  0
    7.3999   -7.5328    3.4393 H   0  0  0  0  0  0
    7.6722   -8.0157    0.4633 H   0  0  0  0  0  0
    8.6553   -6.7365    1.3111 H   0  0  0  0  0  0
    5.7894   -6.9452    1.8249 H   0  0  0  0  0  0
    5.1470   -6.1534   -0.1995 H   0  0  0  0  0  0
    6.7260   -6.8623   -0.7102 H   0  0  0  0  0  0
    3.7425   -3.1596   -2.0736 H   0  0  0  0  0  0
    0.8556   -1.4197   -4.0789 H   0  0  0  0  0  0
   -1.4727   -1.5577   -3.2966 H   0  0  0  0  0  0
   -1.9376   -1.5886   -0.8484 H   0  0  0  0  0  0
    3.6813   -1.2643    4.5177 H   0  0  0  0  0  0
    1.3435   -1.4249    5.2504 H   0  0  0  0  0  0
   -0.4742   -1.5138    3.5759 H   0  0  0  0  0  0
    5.3034   -1.1692    2.8993 H   0  0  0  0  0  0
    4.9102   -2.0838    1.4241 H   0  0  0  0  0  0
    4.8065   -0.3071    1.4238 H   0  0  0  0  0  0
    5.0726   -1.4703   -0.4404 H   0  0  0  0  0  0
    5.5615   -0.7942   -2.0598 H   0  0  0  0  0  0
    7.1674   -2.5501   -1.1604 H   0  0  0  0  0  0
    6.3947   -3.0047   -2.7336 H   0  0  0  0  0  0
    5.2466   -4.6250   -1.7370 H   0  0  0  0  0  0
    4.9623   -3.7352   -0.3325 H   0  0  0  0  0  0
    7.6123   -4.7989   -1.0371 H   0  0  0  0  0  0
    6.9951   -4.2288    0.5917 H   0  0  0  0  0  0
  1  2  2  0  0  0
  1  6  1  0  0  0
  1 16  1  0  0  0
  2  3  1  0  0  0
  2 45  1  0  0  0
  3  4  2  0  0  0
  3 46  1  0  0  0
  4  5  1  0  0  0
  4 47  1  0  0  0
  5  6  1  0  0  0
  5  7  2  0  0  0
  6  8  2  0  0  0
  7  9  1  0  0  0
  8 10  1  0  0  0
  9 10  2  0  0  0
  9 11  1  0  0  0
 10 14  1  0  0  0
 11 12  2  0  0  0
 11 48  1  0  0  0
 12 13  1  0  0  0
 12 49  1  0  0  0
 13 14  2  0  0  0
 13 50  1  0  0  0
 14 15  1  0  0  0
 15 51  1  0  0  0
 15 52  1  0  0  0
 15 53  1  0  0  0
 16 17  2  0  0  0
 16 18  1  0  0  0
 18 19  1  0  0  0
 18 54  1  0  0  0
 19 20  1  0  0  0
 19 55  1  0  0  0
 19 56  1  0  0  0
 20 21  1  0  0  0
 20 57  1  0  0  0
 20 58  1  0  0  0
 21 22  1  0  0  0
 21 59  1  0  0  0
 22 44  1  0  0  0
 22 60  1  0  0  0
 22 61  1  0  0  0
 23 24  1  0  0  0
 23 41  1  0  0  0
 23 62  1  0  0  0
 24 25  2  0  0  0
 24 26  1  0  0  0
 26 27  2  0  0  0
 26 35  1  0  0  0
 27 28  1  0  0  0
 27 63  1  0  0  0
 28 29  2  0  0  0
 28 64  1  0  0  0
 29 30  1  0  0  0
 29 65  1  0  0  0
 30 31  1  0  0  0
 30 35  2  0  0  0
 31 32  2  0  0  0
 32 33  1  0  0  0
 32 39  1  0  0  0
 33 34  2  0  0  0
 33 36  1  0  0  0
 34 35  1  0  0  0
 36 37  2  0  0  0
 36 40  1  0  0  0
 37 38  1  0  0  0
 37 66  1  0  0  0
 38 39  2  0  0  0
 38 67  1  0  0  0
 39 68  1  0  0  0
 40 69  1  0  0  0
 40 70  1  0  0  0
 40 71  1  0  0  0
 41 42  1  0  0  0
 41 72  1  0  0  0
 41 73  1  0  0  0
 42 43  1  0  0  0
 42 74  1  0  0  0
 42 75  1  0  0  0
 43 44  1  0  0  0
 43 76  1  0  0  0
 43 77  1  0  0  0
 44 78  1  0  0  0
 44 79  1  0  0  0
M  CHG  1  43   1
M  END
> <i_m_stars>
0

> <s_m_entry_id>
200

> <s_m_entry_name>
Structure200

> <s_pdb_PDB_TITLE>
SOLUTION STRUCTURE OF TFF1 ESTROGEN RESPONSE ELEMENT COMPLEXED WITH DNA BIS-INTERCALATING ANTICANCER DRUG XR5944 (MLN944)

> <s_pdb_PDB_ID>
2MG8

> <i_pdb_PDB_Model>
1

> <s_pdb_PDB_CLASSIFICATION>
DNA

> <s_pdb_PDB_DEPOSITION_DATE>
30-OCT-13

> <s_pdb_PDB_format_version>
3.30

> <s_pdb_PDB_EXPDTA>
SOLUTION NMR

> <r_pdb_PDB_EXPDTA_TEMPERATURE>
298

> <r_pdb_PDB_EXPDTA_PH>
7

> <s_pdb_PDB_REMARK_350_Biomolecule_1_Chains>
A, B

> <s_pdb_PDB_REMARK_350_Biomolecule_1_Transformation_1>
1.000000 0.000000 0.000000   0.000000;0.000000 1.000000 0.000000   0.000000;0.000000 0.000000 1.000000   0.000000

> <s_m_Source_Path>
G:\02ReData201904034\NLData\PDBs\2MG8

> <s_m_Source_File>
2MG8.pdb

> <i_m_Source_File_Index>
1

> <s_ppw_entry_id_backup>
184

> <b_ppw_prepared>
1

> <s_ppw_prepared_with_version>
2018-3

> <b_ppw_assigned_bond_orders>
1

> <b_ppw_added_hydrogens>
1

> <b_ppw_treated_metals>
1

> <b_ppw_created_disulfur>
1

> <b_ppw_deleted_far_waters>
1

$$$$
