Structure199
                    3D
 Structure written by MMmdl.
 79 84  0  0  1  0            999 V2000
   -1.7680    8.4280   -2.0370 C   0  0  0  0  0  0
   -3.1170    8.4060   -1.7290 C   0  0  0  0  0  0
   -3.5390    8.2950   -0.4120 C   0  0  0  0  0  0
   -2.5860    8.2060    0.5980 C   0  0  0  0  0  0
   -1.2250    8.2290    0.2860 C   0  0  0  0  0  0
   -0.8200    8.3410   -1.0380 C   0  0  0  0  0  0
   -0.3630    8.1380    1.3190 N   0  0  0  0  0  0
    0.5250    8.3610   -1.3020 N   0  0  0  0  0  0
    0.9490    8.1610    1.0140 C   0  0  0  0  0  0
    1.4290    8.2710   -0.2780 C   0  0  0  0  0  0
    1.8470    8.0670    2.0750 C   0  0  0  0  0  0
    3.2210    8.0840    1.8390 C   0  0  0  0  0  0
    3.6910    8.1980    0.5350 C   0  0  0  0  0  0
    2.8270    8.2890   -0.5060 C   0  0  0  0  0  0
    3.3620    8.4210   -1.9300 C   0  0  0  0  0  0
   -1.3890    8.5370   -3.4950 C   0  0  0  0  0  0
   -0.5100    7.8300   -3.9830 O   0  0  0  0  0  0
   -2.0410    9.4140   -4.2100 N   0  0  0  0  0  0
   -1.4880    9.8650   -5.5190 C   0  0  0  0  0  0
   -0.0650   10.3390   -5.2080 C   0  0  0  0  0  0
   -0.2250   11.5240   -4.3130 N   0  3  0  0  0  0
   -0.7760   12.6200   -5.1810 C   0  0  0  0  0  0
   -3.2610   16.7020   -5.6210 N   0  0  0  0  0  0
   -2.9840   17.7900   -4.9530 C   0  0  0  0  0  0
   -3.8090   18.6900   -4.8120 O   0  0  0  0  0  0
   -1.5990   17.8920   -4.3610 C   0  0  0  0  0  0
   -0.5300   17.9170   -5.2390 C   0  0  0  0  0  0
    0.7700   17.9970   -4.7650 C   0  0  0  0  0  0
    0.9870   18.0530   -3.3900 C   0  0  0  0  0  0
   -0.0940   18.0280   -2.5050 C   0  0  0  0  0  0
    0.1950   18.0850   -1.1880 N   0  0  0  0  0  0
   -0.8540   18.0600   -0.3380 C   0  0  0  0  0  0
   -2.1700   17.9820   -0.7570 C   0  0  0  0  0  0
   -2.4230   17.9260   -2.1010 N   0  0  0  0  0  0
   -1.3890   17.9480   -3.0000 C   0  0  0  0  0  0
   -3.2110   17.9610    0.2020 C   0  0  0  0  0  0
   -2.9220   18.0170    1.5260 C   0  0  0  0  0  0
   -1.6040   18.0950    1.9620 C   0  0  0  0  0  0
   -0.5700   18.1170    1.0260 C   0  0  0  0  0  0
   -4.6640   17.8760   -0.2540 C   0  0  0  0  0  0
   -3.5140   15.4250   -4.8940 C   0  0  0  0  0  0
   -2.1600   15.0480   -4.2830 C   0  0  0  0  0  0
   -2.3480   13.6880   -3.6930 N   0  0  0  0  0  0
   -2.2710   12.7320   -4.8380 C   0  0  0  0  0  0
   -3.8521    8.4756   -2.5172 H   0  0  0  0  0  0
   -4.5942    8.2786   -0.1826 H   0  0  0  0  0  0
   -2.8977    8.1187    1.6284 H   0  0  0  0  0  0
    1.4800    7.9804    3.0870 H   0  0  0  0  0  0
    3.9119    8.0089    2.6657 H   0  0  0  0  0  0
    4.7538    8.2147    0.3436 H   0  0  0  0  0  0
    4.4518    8.4166   -1.9111 H   0  0  0  0  0  0
    3.0062    7.5844   -2.5314 H   0  0  0  0  0  0
    3.0104    9.3563   -2.3655 H   0  0  0  0  0  0
   -2.9187    9.7858   -3.8760 H   0  0  0  0  0  0
   -2.0758   10.7048   -5.8896 H   0  0  0  0  0  0
   -1.4453    9.0185   -6.2043 H   0  0  0  0  0  0
    0.4238   10.6471   -6.1323 H   0  0  0  0  0  0
    0.4698    9.5528   -4.6752 H   0  0  0  0  0  0
    0.6791   11.8003   -3.9575 H   0  0  0  0  0  0
   -0.8900   11.3067   -3.5846 H   0  0  0  0  0  0
   -0.6646   12.3425   -6.2292 H   0  0  0  0  0  0
   -0.2776   13.5587   -4.9392 H   0  0  0  0  0  0
   -3.3038   16.7259   -6.6298 H   0  0  0  0  0  0
   -0.7047   17.8740   -6.3039 H   0  0  0  0  0  0
    1.5976   18.0152   -5.4587 H   0  0  0  0  0  0
    1.9938   18.1160   -3.0043 H   0  0  0  0  0  0
   -3.7196   18.0012    2.2540 H   0  0  0  0  0  0
   -1.3865   18.1381    3.0190 H   0  0  0  0  0  0
    0.4545   18.1785    1.3622 H   0  0  0  0  0  0
   -5.3191   17.8711    0.6172 H   0  0  0  0  0  0
   -4.8997   18.7364   -0.8803 H   0  0  0  0  0  0
   -4.8131   16.9597   -0.8252 H   0  0  0  0  0  0
   -3.8151   14.6572   -5.6066 H   0  0  0  0  0  0
   -4.2344   15.6008   -4.0951 H   0  0  0  0  0  0
   -1.9109   15.7546   -3.4913 H   0  0  0  0  0  0
   -1.4083   14.9999   -5.0709 H   0  0  0  0  0  0
   -1.6183   13.5096   -3.0179 H   0  0  0  0  0  0
   -2.6435   11.7577   -4.5215 H   0  0  0  0  0  0
   -2.8080   13.1458   -5.6915 H   0  0  0  0  0  0
  1  2  2  0  0  0
  1  6  1  0  0  0
  1 16  1  0  0  0
  2  3  1  0  0  0
  2 45  1  0  0  0
  3  4  2  0  0  0
  3 46  1  0  0  0
  4  5  1  0  0  0
  4 47  1  0  0  0
  5  6  1  0  0  0
  5  7  2  0  0  0
  6  8  2  0  0  0
  7  9  1  0  0  0
  8 10  1  0  0  0
  9 10  2  0  0  0
  9 11  1  0  0  0
 10 14  1  0  0  0
 11 12  2  0  0  0
 11 48  1  0  0  0
 12 13  1  0  0  0
 12 49  1  0  0  0
 13 14  2  0  0  0
 13 50  1  0  0  0
 14 15  1  0  0  0
 15 51  1  0  0  0
 15 52  1  0  0  0
 15 53  1  0  0  0
 16 17  2  0  0  0
 16 18  1  0  0  0
 18 19  1  0  0  0
 18 54  1  0  0  0
 19 20  1  0  0  0
 19 55  1  0  0  0
 19 56  1  0  0  0
 20 21  1  0  0  0
 20 57  1  0  0  0
 20 58  1  0  0  0
 21 22  1  0  0  0
 21 59  1  0  0  0
 21 60  1  0  0  0
 22 44  1  0  0  0
 22 61  1  0  0  0
 22 62  1  0  0  0
 23 24  1  0  0  0
 23 41  1  0  0  0
 23 63  1  0  0  0
 24 25  2  0  0  0
 24 26  1  0  0  0
 26 27  2  0  0  0
 26 35  1  0  0  0
 27 28  1  0  0  0
 27 64  1  0  0  0
 28 29  2  0  0  0
 28 65  1  0  0  0
 29 30  1  0  0  0
 29 66  1  0  0  0
 30 31  1  0  0  0
 30 35  2  0  0  0
 31 32  2  0  0  0
 32 33  1  0  0  0
 32 39  1  0  0  0
 33 34  2  0  0  0
 33 36  1  0  0  0
 34 35  1  0  0  0
 36 37  2  0  0  0
 36 40  1  0  0  0
 37 38  1  0  0  0
 37 67  1  0  0  0
 38 39  2  0  0  0
 38 68  1  0  0  0
 39 69  1  0  0  0
 40 70  1  0  0  0
 40 71  1  0  0  0
 40 72  1  0  0  0
 41 42  1  0  0  0
 41 73  1  0  0  0
 41 74  1  0  0  0
 42 43  1  0  0  0
 42 75  1  0  0  0
 42 76  1  0  0  0
 43 44  1  0  0  0
 43 77  1  0  0  0
 44 78  1  0  0  0
 44 79  1  0  0  0
M  CHG  1  21   1
M  END
> <i_m_stars>
0

> <s_m_entry_id>
199

> <s_m_entry_name>
Structure199

> <s_pdb_PDB_TITLE>
SOLUTION STRUCTURE OF TFF1 ESTROGEN RESPONSE ELEMENT COMPLEXED WITH DNA BIS-INTERCALATING ANTICANCER DRUG XR5944 (MLN944)

> <s_pdb_PDB_ID>
2MG8

> <i_pdb_PDB_Model>
1

> <s_pdb_PDB_CLASSIFICATION>
DNA

> <s_pdb_PDB_DEPOSITION_DATE>
30-OCT-13

> <s_pdb_PDB_format_version>
3.30

> <s_pdb_PDB_EXPDTA>
SOLUTION NMR

> <r_pdb_PDB_EXPDTA_TEMPERATURE>
298

> <r_pdb_PDB_EXPDTA_PH>
7

> <s_pdb_PDB_REMARK_350_Biomolecule_1_Chains>
A, B

> <s_pdb_PDB_REMARK_350_Biomolecule_1_Transformation_1>
1.000000 0.000000 0.000000   0.000000;0.000000 1.000000 0.000000   0.000000;0.000000 0.000000 1.000000   0.000000

> <s_m_Source_Path>
G:\02ReData201904034\NLData\PDBs\2MG8

> <s_m_Source_File>
2MG8.pdb

> <i_m_Source_File_Index>
1

> <s_ppw_entry_id_backup>
184

> <b_ppw_prepared>
1

> <s_ppw_prepared_with_version>
2018-3

> <b_ppw_assigned_bond_orders>
1

> <b_ppw_added_hydrogens>
1

> <b_ppw_treated_metals>
1

> <b_ppw_created_disulfur>
1

> <b_ppw_deleted_far_waters>
1

$$$$
