@<TRIPOS>MOLECULE
MOL
   38    40     1     0     0
SMALL
bcc


@<TRIPOS>ATOM
      1 N1           9.9650    22.8990     8.1030 na         1 MOL      -0.151300
      2 C1           9.2350    23.8640     7.3720 cc         1 MOL      -0.036200
      3 C2           8.1170    24.1740     7.9840 cc         1 MOL      -0.146000
      4 C3           7.0950    23.2580    10.1860 cd         1 MOL      -0.050000
      5 C4           7.2960    22.3860    11.2570 cc         1 MOL      -0.126000
      6 C5           8.5020    21.6290    11.3030 cc         1 MOL      -0.144000
      7 C6           9.4530    21.7470    10.2990 cc         1 MOL      -0.088000
      8 C7           9.2070    22.6310     9.2140 cd         1 MOL      -0.038200
      9 C8           8.0710    23.3720     9.1550 cd         1 MOL      -0.046000
     10 C9           8.7530    20.8150    12.3550 c2         1 MOL       0.504000
     11 N2           7.9040    20.6810    13.3660 nv         1 MOL      -0.801600
     12 N3           9.8710    20.0860    12.4010 nv         1 MOL      -0.801600
     13 C10          9.8260    24.3730     6.1010 cd         1 MOL       0.032000
     14 C11          9.2000    25.3130     5.2560 cd         1 MOL      -0.109000
     15 C12          9.8460    25.6880     4.0780 cc         1 MOL      -0.073500
     16 C13         11.1160    25.1380     3.7190 cc         1 MOL      -0.165000
     17 C14         11.7170    24.2020     4.5840 cc         1 MOL      -0.073500
     18 C15         11.0960    23.8110     5.7550 cd         1 MOL      -0.109000
     19 C16         11.7070    25.5410     2.5810 c2         1 MOL       0.504000
     20 N4          12.8960    25.1510     2.0820 nv         1 MOL      -0.799100
     21 N5          11.0600    26.4290     1.7830 nv         1 MOL      -0.799100
     22 H1          10.8520    22.5660     7.7540 hn         1 MOL       0.315700
     23 H2           7.4570    24.9160     7.5590 ha         1 MOL       0.182000
     24 H3           6.1940    23.8520    10.1350 ha         1 MOL       0.174000
     25 H4           6.5450    22.2960    12.0280 ha         1 MOL       0.155000
     26 H5          10.3650    21.1710    10.3490 ha         1 MOL       0.153000
     27 H6           8.1260    20.0640    14.1340 hn         1 MOL       0.484300
     28 H7           7.0350    21.1960    13.3680 hn         1 MOL       0.484300
     29 H8          10.0480    19.4820    13.1910 hn         1 MOL       0.484300
     30 H9          10.5400    20.1390    11.6460 hn         1 MOL       0.484300
     31 H10          8.2400    25.7270     5.5260 ha         1 MOL       0.167000
     32 H11          9.3870    26.4070     3.4160 ha         1 MOL       0.160000
     33 H12         12.6790    23.7780     4.3360 ha         1 MOL       0.160000
     34 H13         11.5620    23.0870     6.4070 ha         1 MOL       0.167000
     35 H14         13.2270    25.5350     1.2080 hn         1 MOL       0.486050
     36 H15         13.4560    24.4750     2.5810 hn         1 MOL       0.486050
     37 H16         11.4890    26.7420     0.9240 hn         1 MOL       0.486050
     38 H17         10.1490    26.7760     2.0480 hn         1 MOL       0.486050
@<TRIPOS>BOND
     1     1     2 1   
     2     1     8 1   
     3     1    22 1   
     4     2     3 1   
     5     2    13 2   
     6     3     9 2   
     7     3    23 1   
     8     4     5 2   
     9     4     9 1   
    10     4    24 1   
    11     5     6 1   
    12     5    25 1   
    13     6     7 1   
    14     6    10 2   
    15     7     8 2   
    16     7    26 1   
    17     8     9 1   
    18    10    11 1   
    19    10    12 1   
    20    11    27 1   
    21    11    28 1   
    22    12    29 1   
    23    12    30 1   
    24    13    14 1   
    25    13    18 1   
    26    14    15 2   
    27    14    31 1   
    28    15    16 1   
    29    15    32 1   
    30    16    17 1   
    31    16    19 2   
    32    17    18 2   
    33    17    33 1   
    34    18    34 1   
    35    19    20 1   
    36    19    21 1   
    37    20    35 1   
    38    20    36 1   
    39    21    37 1   
    40    21    38 1   
@<TRIPOS>SUBSTRUCTURE
     1 MOL         1 TEMP              0 ****  ****    0 ROOT
