
                    3D
 Schrodinger Suite 2021-1.
 38 40  0  0  1  0            999 V2000
    9.9650   22.8990    8.1030 N   0  0  0  0  0  0
    9.2350   23.8640    7.3720 C   0  0  0  0  0  0
    8.1170   24.1740    7.9840 C   0  0  0  0  0  0
    7.0950   23.2580   10.1860 C   0  0  0  0  0  0
    7.2960   22.3860   11.2570 C   0  0  0  0  0  0
    8.5020   21.6290   11.3030 C   0  0  0  0  0  0
    9.4530   21.7470   10.2990 C   0  0  0  0  0  0
    9.2070   22.6310    9.2140 C   0  0  0  0  0  0
    8.0710   23.3720    9.1550 C   0  0  0  0  0  0
    8.7530   20.8150   12.3550 C   0  0  0  0  0  0
    7.9040   20.6810   13.3660 N   0  3  0  0  0  0
    9.8710   20.0860   12.4010 N   0  0  0  0  0  0
    9.8260   24.3730    6.1010 C   0  0  0  0  0  0
    9.2000   25.3130    5.2560 C   0  0  0  0  0  0
    9.8460   25.6880    4.0780 C   0  0  0  0  0  0
   11.1160   25.1380    3.7190 C   0  0  0  0  0  0
   11.7170   24.2020    4.5840 C   0  0  0  0  0  0
   11.0960   23.8110    5.7550 C   0  0  0  0  0  0
   11.7070   25.5410    2.5810 C   0  0  0  0  0  0
   12.8960   25.1510    2.0820 N   0  3  0  0  0  0
   11.0600   26.4290    1.7830 N   0  0  0  0  0  0
   10.8525   22.5663    7.7541 H   0  0  0  0  0  0
    7.4568   24.9159    7.5595 H   0  0  0  0  0  0
    6.1945   23.8521   10.1350 H   0  0  0  0  0  0
    6.5454   22.2960   12.0283 H   0  0  0  0  0  0
   10.3653   21.1712   10.3490 H   0  0  0  0  0  0
    8.1264   20.0636   14.1338 H   0  0  0  0  0  0
    7.0354   21.1964   13.3677 H   0  0  0  0  0  0
   10.0479   19.4820   13.1909 H   0  0  0  0  0  0
   10.5396   20.1386   11.6458 H   0  0  0  0  0  0
    8.2398   25.7270    5.5264 H   0  0  0  0  0  0
    9.3872   26.4075    3.4160 H   0  0  0  0  0  0
   12.6787   23.7776    4.3362 H   0  0  0  0  0  0
   11.5619   23.0871    6.4071 H   0  0  0  0  0  0
   13.2275   25.5348    1.2085 H   0  0  0  0  0  0
   13.4560   24.4748    2.5814 H   0  0  0  0  0  0
   11.4895   26.7425    0.9243 H   0  0  0  0  0  0
   10.1493   26.7760    2.0482 H   0  0  0  0  0  0
  1  2  1  0  0  0
  1  8  1  0  0  0
  1 22  1  0  0  0
  2  3  2  0  0  0
  2 13  1  0  0  0
  3  9  1  0  0  0
  3 23  1  0  0  0
  4  5  2  0  0  0
  4  9  1  0  0  0
  4 24  1  0  0  0
  5  6  1  0  0  0
  5 25  1  0  0  0
  6  7  2  0  0  0
  6 10  1  0  0  0
  7  8  1  0  0  0
  7 26  1  0  0  0
  8  9  2  0  0  0
 10 11  2  0  0  0
 10 12  1  0  0  0
 11 27  1  0  0  0
 11 28  1  0  0  0
 12 29  1  0  0  0
 12 30  1  0  0  0
 13 14  2  0  0  0
 13 18  1  0  0  0
 14 15  1  0  0  0
 14 31  1  0  0  0
 15 16  2  0  0  0
 15 32  1  0  0  0
 16 17  1  0  0  0
 16 19  1  0  0  0
 17 18  2  0  0  0
 17 33  1  0  0  0
 18 34  1  0  0  0
 19 20  2  0  0  0
 19 21  1  0  0  0
 20 35  1  0  0  0
 20 36  1  0  0  0
 21 37  1  0  0  0
 21 38  1  0  0  0
M  CHG  2  11   1  20   1
M  END
> <s_pdb_PDB_format_version>
3.0

> <b_ppw_prepared>
1

> <s_ppw_prepared_with_version>
2021-1

> <s_ppw_het_states>
eJxNUUkSgzAM+0qGc9qJXJbQrzD8gOmtJ4a/104lgEMkG0eynb1D906Lf8iprDktRnwRe+JAHIkTsRJnIoqIK6IRSUKakCikCslCupAwpGyFgtZ6DRZdm2xyqirIya2MNGzBkWZSb2BgRX9lPTWSOk4siJSsp8uktnummWPcKzibCu9efyLQ9cjG+NAeYgWmXcQacAbqr2WrysK93IO2cI8e5en5vTPzt43gyOnz3bb/ua7HD8oLahg=

$$$$
