@<TRIPOS>MOLECULE
MOL
   60    65     1     0     0
SMALL
bcc


@<TRIPOS>ATOM
      1 C1           8.4670    19.9540    13.2940 ca         1 MOL       0.186100
      2 C2           8.7150    21.6280    10.8190 ca         1 MOL      -0.175900
      3 C3           9.7190    20.3140    12.6620 ca         1 MOL      -0.215000
      4 C4           9.8290    21.1300    11.4580 ca         1 MOL      -0.061000
      5 C5           7.3560    20.5620    12.4950 ca         1 MOL      -0.017100
      6 C6           7.4880    21.3490    11.3290 ca         1 MOL      -0.018000
      7 O1           8.3540    19.1040    14.5530 os         1 MOL      -0.307900
      8 C7           8.8090    22.4290     9.6370 cc         1 MOL       0.501400
      9 C8           9.5530    23.3950     7.7720 ca         1 MOL      -0.081200
     10 C9           8.2290    23.8340     8.0690 ca         1 MOL       0.097400
     11 C10          7.5220    24.7840     7.2210 ca         1 MOL      -0.072000
     12 C11          8.2630    25.2480     6.0600 ca         1 MOL      -0.106000
     13 C12          9.5870    24.7940     5.7830 ca         1 MOL      -0.124900
     14 C13         10.2360    23.8790     6.6220 ca         1 MOL      -0.116000
     15 N1           9.8700    22.5060     8.8010 na         1 MOL      -0.283300
     16 N2           7.8350    23.2270     9.1920 nd         1 MOL      -0.557100
     17 C14         10.3530    25.2650     4.6080 cc         1 MOL       0.504400
     18 C15         11.9540    25.3390     3.0140 ca         1 MOL      -0.062200
     19 C16         11.0890    26.4640     2.8290 ca         1 MOL       0.082400
     20 C17         11.2940    27.4560     1.7470 ca         1 MOL      -0.049000
     21 C18         12.4370    27.2170     0.8790 ca         1 MOL      -0.151000
     22 C19         13.3200    26.0420     1.0900 ca         1 MOL       0.089600
     23 C20         13.0830    25.1170     2.1390 ca         1 MOL      -0.164000
     24 N3          11.4190    24.6740     4.1180 na         1 MOL      -0.282300
     25 N4          10.1420    26.4090     3.7820 nd         1 MOL      -0.548100
     26 N5          14.3130    25.8080     0.0440 nh         1 MOL      -0.638000
     27 N6          16.3180    25.4890    -1.9770 nx         1 MOL      -0.682400
     28 C21         15.2820    24.5780     0.0600 c3         1 MOL       0.160300
     29 C22         16.5590    25.2980    -0.4530 c3         1 MOL       0.104300
     30 C23         15.1280    26.5000    -2.0520 c3         1 MOL       0.104300
     31 C24         13.9170    25.7100    -1.4680 c3         1 MOL       0.160300
     32 C25         17.4420    26.4950    -2.2020 c3         1 MOL       0.084100
     33 I1           5.3300    20.3400    12.9930 i          1 MOL      -0.099900
     34 C26          9.2570    18.3810    15.5440 c3         1 MOL       0.109700
     35 H1          10.6540    19.9730    13.0820 ha         1 MOL       0.148000
     36 H2          10.8140    21.3410    11.0690 ha         1 MOL       0.133000
     37 H3           6.6020    21.7300    10.8430 ha         1 MOL       0.171000
     38 H4           6.5190    25.0930     7.4760 ha         1 MOL       0.162000
     39 H5           7.8130    25.9550     5.3790 ha         1 MOL       0.157000
     40 H6          11.2390    23.5410     6.4070 ha         1 MOL       0.132000
     41 H7          10.7020    21.9650     8.9890 hn         1 MOL       0.308700
     42 H8          10.6150    28.2900     1.6430 ha         1 MOL       0.166000
     43 H9          12.6520    27.8980     0.0690 ha         1 MOL       0.139000
     44 H10         13.7240    24.2620     2.2920 ha         1 MOL       0.130000
     45 H11         11.7670    23.8260     4.5430 hn         1 MOL       0.311700
     46 H12         16.2860    24.6670    -2.5630 hn         1 MOL       0.444800
     47 H13         14.9550    23.8620    -0.6940 h1         1 MOL       0.079200
     48 H14         15.4430    24.2690     1.0930 h1         1 MOL       0.079200
     49 H15         16.6400    26.2740     0.0250 hx         1 MOL       0.108700
     50 H16         17.4230    24.6510    -0.3020 hx         1 MOL       0.108700
     51 H17         14.9290    26.7460    -3.0950 hx         1 MOL       0.108700
     52 H18         15.3420    27.3570    -1.4130 hx         1 MOL       0.108700
     53 H19         13.0080    26.2890    -1.6310 h1         1 MOL       0.079200
     54 H20         13.9910    24.6690    -1.7840 h1         1 MOL       0.079200
     55 H21         17.4650    26.7860    -3.2520 hx         1 MOL       0.105033
     56 H22         17.2700    27.3770    -1.5850 hx         1 MOL       0.105033
     57 H23         18.3950    26.0420    -1.9300 hx         1 MOL       0.105033
     58 H24          8.6460    17.8960    16.3060 h1         1 MOL       0.053033
     59 H25          9.8460    17.6290    15.0180 h1         1 MOL       0.053033
     60 H26          9.9260    19.0990    16.0180 h1         1 MOL       0.053033
@<TRIPOS>BOND
     1     1     3 ar  
     2     1     5 ar  
     3     1     7 1   
     4     2     4 ar  
     5     2     6 ar  
     6     2     8 1   
     7     3     4 ar  
     8     3    35 1   
     9     4    36 1   
    10     5     6 ar  
    11     5    33 1   
    12     6    37 1   
    13     7    34 1   
    14     8    15 1   
    15     8    16 2   
    16     9    10 ar  
    17     9    14 ar  
    18     9    15 1   
    19    10    11 ar  
    20    10    16 1   
    21    11    12 ar  
    22    11    38 1   
    23    12    13 ar  
    24    12    39 1   
    25    13    14 ar  
    26    13    17 1   
    27    14    40 1   
    28    15    41 1   
    29    17    24 1   
    30    17    25 2   
    31    18    19 ar  
    32    18    23 ar  
    33    18    24 1   
    34    19    20 ar  
    35    19    25 1   
    36    20    21 ar  
    37    20    42 1   
    38    21    22 ar  
    39    21    43 1   
    40    22    23 ar  
    41    22    26 1   
    42    23    44 1   
    43    24    45 1   
    44    26    28 1   
    45    26    31 1   
    46    27    29 1   
    47    27    30 1   
    48    27    32 1   
    49    27    46 1   
    50    28    29 1   
    51    28    47 1   
    52    28    48 1   
    53    29    49 1   
    54    29    50 1   
    55    30    31 1   
    56    30    51 1   
    57    30    52 1   
    58    31    53 1   
    59    31    54 1   
    60    32    55 1   
    61    32    56 1   
    62    32    57 1   
    63    34    58 1   
    64    34    59 1   
    65    34    60 1   
@<TRIPOS>SUBSTRUCTURE
     1 MOL         1 TEMP              0 ****  ****    0 ROOT
