
                    3D
 Schrodinger Suite 2021-1.
 60 65  0  0  1  0            999 V2000
    8.4670   19.9540   13.2940 C   0  0  0  0  0  0
    8.7150   21.6280   10.8190 C   0  0  0  0  0  0
    9.7190   20.3140   12.6620 C   0  0  0  0  0  0
    9.8290   21.1300   11.4580 C   0  0  0  0  0  0
    7.3560   20.5620   12.4950 C   0  0  0  0  0  0
    7.4880   21.3490   11.3290 C   0  0  0  0  0  0
    8.3540   19.1040   14.5530 O   0  0  0  0  0  0
    8.8090   22.4290    9.6370 C   0  0  0  0  0  0
    9.5530   23.3950    7.7720 C   0  0  0  0  0  0
    8.2290   23.8340    8.0690 C   0  0  0  0  0  0
    7.5220   24.7840    7.2210 C   0  0  0  0  0  0
    8.2630   25.2480    6.0600 C   0  0  0  0  0  0
    9.5870   24.7940    5.7830 C   0  0  0  0  0  0
   10.2360   23.8790    6.6220 C   0  0  0  0  0  0
    9.8700   22.5060    8.8010 N   0  0  0  0  0  0
    7.8350   23.2270    9.1920 N   0  0  0  0  0  0
   10.3530   25.2650    4.6080 C   0  0  0  0  0  0
   11.9540   25.3390    3.0140 C   0  0  0  0  0  0
   11.0890   26.4640    2.8290 C   0  0  0  0  0  0
   11.2940   27.4560    1.7470 C   0  0  0  0  0  0
   12.4370   27.2170    0.8790 C   0  0  0  0  0  0
   13.3200   26.0420    1.0900 C   0  0  0  0  0  0
   13.0830   25.1170    2.1390 C   0  0  0  0  0  0
   11.4190   24.6740    4.1180 N   0  0  0  0  0  0
   10.1420   26.4090    3.7820 N   0  0  0  0  0  0
   14.3130   25.8080    0.0440 N   0  0  0  0  0  0
   16.3180   25.4890   -1.9770 N   0  3  0  0  0  0
   15.2820   24.5780    0.0600 C   0  0  0  0  0  0
   16.5590   25.2980   -0.4530 C   0  0  0  0  0  0
   15.1280   26.5000   -2.0520 C   0  0  0  0  0  0
   13.9170   25.7100   -1.4680 C   0  0  0  0  0  0
   17.4420   26.4950   -2.2020 C   0  0  0  0  0  0
    5.3300   20.3400   12.9930 I   0  0  0  0  0  0
    9.2570   18.3810   15.5440 C   0  0  0  0  0  0
   10.6537   19.9734   13.0824 H   0  0  0  0  0  0
   10.8142   21.3410   11.0690 H   0  0  0  0  0  0
    6.6019   21.7296   10.8429 H   0  0  0  0  0  0
    6.5192   25.0933    7.4761 H   0  0  0  0  0  0
    7.8128   25.9554    5.3794 H   0  0  0  0  0  0
   11.2389   23.5406    6.4073 H   0  0  0  0  0  0
   10.7016   21.9647    8.9893 H   0  0  0  0  0  0
   10.6154   28.2897    1.6431 H   0  0  0  0  0  0
   12.6519   27.8985    0.0692 H   0  0  0  0  0  0
   13.7244   24.2615    2.2915 H   0  0  0  0  0  0
   11.7666   23.8262    4.5428 H   0  0  0  0  0  0
   16.2861   24.6674   -2.5635 H   0  0  0  0  0  0
   14.9546   23.8617   -0.6935 H   0  0  0  0  0  0
   15.4425   24.2693    1.0930 H   0  0  0  0  0  0
   16.6398   26.2743    0.0250 H   0  0  0  0  0  0
   17.4234   24.6513   -0.3023 H   0  0  0  0  0  0
   14.9290   26.7462   -3.0950 H   0  0  0  0  0  0
   15.3417   27.3568   -1.4130 H   0  0  0  0  0  0
   13.0080   26.2888   -1.6315 H   0  0  0  0  0  0
   13.9908   24.6694   -1.7840 H   0  0  0  0  0  0
   17.4650   26.7860   -3.2522 H   0  0  0  0  0  0
   17.2700   27.3768   -1.5848 H   0  0  0  0  0  0
   18.3955   26.0421   -1.9301 H   0  0  0  0  0  0
    8.6465   17.8962   16.3058 H   0  0  0  0  0  0
    9.8458   17.6293   15.0183 H   0  0  0  0  0  0
    9.9258   19.0994   16.0180 H   0  0  0  0  0  0
  1  3  2  0  0  0
  1  5  1  0  0  0
  1  7  1  0  0  0
  2  4  2  0  0  0
  2  6  1  0  0  0
  2  8  1  0  0  0
  3  4  1  0  0  0
  3 35  1  0  0  0
  4 36  1  0  0  0
  5  6  2  0  0  0
  5 33  1  0  0  0
  6 37  1  0  0  0
  7 34  1  0  0  0
  8 15  1  0  0  0
  8 16  2  0  0  0
  9 10  2  0  0  0
  9 14  1  0  0  0
  9 15  1  0  0  0
 10 11  1  0  0  0
 10 16  1  0  0  0
 11 12  2  0  0  0
 11 38  1  0  0  0
 12 13  1  0  0  0
 12 39  1  0  0  0
 13 14  2  0  0  0
 13 17  1  0  0  0
 14 40  1  0  0  0
 15 41  1  0  0  0
 17 24  1  0  0  0
 17 25  2  0  0  0
 18 19  2  0  0  0
 18 23  1  0  0  0
 18 24  1  0  0  0
 19 20  1  0  0  0
 19 25  1  0  0  0
 20 21  2  0  0  0
 20 42  1  0  0  0
 21 22  1  0  0  0
 21 43  1  0  0  0
 22 23  2  0  0  0
 22 26  1  0  0  0
 23 44  1  0  0  0
 24 45  1  0  0  0
 26 28  1  0  0  0
 26 31  1  0  0  0
 27 29  1  0  0  0
 27 30  1  0  0  0
 27 32  1  0  0  0
 27 46  1  0  0  0
 28 29  1  0  0  0
 28 47  1  0  0  0
 28 48  1  0  0  0
 29 49  1  0  0  0
 29 50  1  0  0  0
 30 31  1  0  0  0
 30 51  1  0  0  0
 30 52  1  0  0  0
 31 53  1  0  0  0
 31 54  1  0  0  0
 32 55  1  0  0  0
 32 56  1  0  0  0
 32 57  1  0  0  0
 34 58  1  0  0  0
 34 59  1  0  0  0
 34 60  1  0  0  0
M  CHG  1  27   1
M  END
> <s_pdb_PDB_format_version>
3.0

> <b_ppw_prepared>
1

> <s_ppw_prepared_with_version>
2021-1

> <s_ppw_het_states>
eJztmMFu5CAMhl8lyjmKsMFg9lWqvkG1t56qvvtiwk9Y9VKtttU0YQ6DnTh/wMwnm3lbaf21PJUPbYt73pYnbqNvY2ijtDG2MbVR25jbSA4GFAmSBE2CKEGVIEvQJQgTlBnK3OcKZYYyQ5mhzFDmokzVgDJD2UPZQ9n3NEDZV2WzLFXlKtfJbYs02WL2N2xLaAHFjOdVbaavAdTyGltsMe111NLrEWJPyWAjvkzfst1txOch3gJsJ04H06lXGesoBuHd1cACqoOFmcFhdARhNrE8ONzVdHzGQtzoYKJ21TaWscO2uYRdZiS8Oj2jlgkdHI+V2mbb9nbHu9Hp0jqEWcghUDy3Z4ll1m8rxUII7ZRccVeW4tlNKY+tgeo9T0HNk8Nzmd635ffry8vxXX80VwSs5/0agPEAWAdpAvZlgOWkFbADG07aIQp74rtAdLEqNSH6Rohody4ODJFa4o4iZfdEhrIkmu5B1MXK0uz7vpcoVhr6Ps5Ozk4vuJyGIiXZ3wOpWaS+CikekergXAsp8SEMVSqR1ajQjlWcJ0I/EKEHqkq3QCiGOFSllDSeELGzSNSozP4xj0590yZSj47UHRo9pVyrUjstaZAOUdydpv5vBFuVuglS8+w0kfpXpAonUZMh1SCSYIs4IJI9p6gPCdF/b/U+QuQmRBOiT0JUDkvaWz3eo0uMusR74jggpd7f9vQ0kZpIfRqpmHlAStSeOho/3jnJX4CleDZ+H/q+5/c/Ys7ewg==

$$$$
