
                    3D
 Schrodinger Suite 2021-1.
 29 28  0  0  1  0            999 V2000
  -15.6630    5.2600   12.7250 N   0  3  0  0  0  0
  -16.1450    3.8940   12.4810 C   0  0  1  0  0  0
  -15.0010    2.8800   12.5360 C   0  0  0  0  0  0
  -13.8370    3.2510   11.6130 C   0  0  0  0  0  0
  -12.8860    4.2590   12.2580 C   0  0  0  0  0  0
  -12.4030    3.7800   13.5550 N   0  0  0  0  0  0
  -11.2240    4.1300   14.0920 C   0  0  0  0  0  0
  -10.8940    3.6820   15.3110 N   0  0  0  0  0  0
  -10.3790    4.9200   13.4160 N   0  3  0  0  0  0
  -17.2280    3.5100   13.4800 C   0  0  0  0  0  0
  -17.2810    2.3690   13.9330 O   0  0  0  0  0  0
  -18.0870    4.4700   13.8330 N   0  0  0  0  0  0
  -16.4397    5.9042   12.6822 H   0  0  0  0  0  0
  -15.2359    5.3086   13.6389 H   0  0  0  0  0  0
  -14.9816    5.5077   12.0218 H   0  0  0  0  0  0
  -16.5789    3.8613   11.4816 H   0  0  0  0  0  0
  -15.3779    1.8937   12.2652 H   0  0  0  0  0  0
  -14.6387    2.7979   13.5607 H   0  0  0  0  0  0
  -14.2289    3.6654   10.6841 H   0  0  0  0  0  0
  -13.2842    2.3501   11.3468 H   0  0  0  0  0  0
  -13.4015    5.2101   12.3915 H   0  0  0  0  0  0
  -12.0374    4.4320   11.5962 H   0  0  0  0  0  0
  -13.0166    3.1496   14.0511 H   0  0  0  0  0  0
  -10.0084    3.9412   15.7216 H   0  0  0  0  0  0
  -11.5309    3.0851   15.8192 H   0  0  0  0  0  0
   -9.4932    5.1797   13.8259 H   0  0  0  0  0  0
  -10.6278    5.2558   12.4965 H   0  0  0  0  0  0
  -18.8252    4.2696   14.4926 H   0  0  0  0  0  0
  -17.9984    5.3963   13.4403 H   0  0  0  0  0  0
  1  2  1  0  0  0
  1 13  1  0  0  0
  1 14  1  0  0  0
  1 15  1  0  0  0
  2  3  1  0  0  0
  2 10  1  0  0  0
  2 16  1  0  0  0
  3  4  1  0  0  0
  3 17  1  0  0  0
  3 18  1  0  0  0
  4  5  1  0  0  0
  4 19  1  0  0  0
  4 20  1  0  0  0
  5  6  1  0  0  0
  5 21  1  0  0  0
  5 22  1  0  0  0
  6  7  1  0  0  0
  6 23  1  0  0  0
  7  8  1  0  0  0
  7  9  2  0  0  0
  8 24  1  0  0  0
  8 25  1  0  0  0
  9 26  1  0  0  0
  9 27  1  0  0  0
 10 11  2  0  0  0
 10 12  1  0  0  0
 12 28  1  0  0  0
 12 29  1  0  0  0
M  CHG  2   1   1   9   1
M  END
> <i_pdb_PDB_Model>
1

> <s_pdb_PDB_format_version>
3.0

> <b_ppw_prepared>
1

> <s_ppw_prepared_with_version>
2021-1

> <s_ppw_het_states>
eJztkEEOgzAMBL8S5Ryh2JCE9CuIH6DeekL8vXZYyAdQD5U5MLsg4zC7J/9yi1wUHK3BLRxcVI7gBCYwgwWcwYp5inhAdIX2SU26hPuesUedIqydEIUJUZgRhQVROPcoB+DrALq7l7ZSWhxqYnmze87y163KoOdytyO492fbzns7sokxMSbmMTHxz8XQUInrLUZrvMWczcSYGBNjYn4nZj2+HOod4w==

$$$$
