@<TRIPOS>MOLECULE
MOL
   29    28     1     0     0
SMALL
bcc


@<TRIPOS>ATOM
      1 N1         -15.6630     5.2600    12.7250 nz         1 MOL      -0.838600
      2 C1         -16.1450     3.8940    12.4810 c3         1 MOL       0.033500
      3 C2         -15.0010     2.8800    12.5360 c3         1 MOL      -0.115400
      4 C3         -13.8370     3.2510    11.6130 c3         1 MOL      -0.103400
      5 C4         -12.8860     4.2590    12.2580 c3         1 MOL       0.024300
      6 N2         -12.4030     3.7800    13.5550 nu         1 MOL      -0.419100
      7 C5         -11.2240     4.1300    14.0920 cz         1 MOL       0.528300
      8 N3         -10.8940     3.6820    15.3110 nv         1 MOL      -0.488200
      9 N4         -10.3790     4.9200    13.4160 nv         1 MOL      -0.488200
     10 C6         -17.2280     3.5100    13.4800 c          1 MOL       0.640100
     11 O1         -17.2810     2.3690    13.9330 o          1 MOL      -0.571100
     12 N5         -18.0870     4.4700    13.8330 nt         1 MOL      -0.618000
     13 H1         -16.4400     5.9040    12.6820 hn         1 MOL       0.477133
     14 H2         -15.2360     5.3090    13.6390 hn         1 MOL       0.477133
     15 H3         -14.9820     5.5080    12.0220 hn         1 MOL       0.477133
     16 H4         -16.5790     3.8610    11.4820 hx         1 MOL       0.120700
     17 H5         -15.3780     1.8940    12.2650 hc         1 MOL       0.098700
     18 H6         -14.6390     2.7980    13.5610 hc         1 MOL       0.098700
     19 H7         -14.2290     3.6650    10.6840 hc         1 MOL       0.073700
     20 H8         -13.2840     2.3500    11.3470 hc         1 MOL       0.073700
     21 H9         -13.4020     5.2100    12.3920 h1         1 MOL       0.079200
     22 H10        -12.0370     4.4320    11.5960 h1         1 MOL       0.079200
     23 H11        -13.0170     3.1500    14.0510 hn         1 MOL       0.314700
     24 H12        -10.0080     3.9410    15.7220 hn         1 MOL       0.335450
     25 H13        -11.5310     3.0850    15.8190 hn         1 MOL       0.335450
     26 H14         -9.4930     5.1800    13.8260 hn         1 MOL       0.335450
     27 H15        -10.6280     5.2560    12.4960 hn         1 MOL       0.335450
     28 H16        -18.8250     4.2700    14.4930 hn         1 MOL       0.352000
     29 H17        -17.9980     5.3960    13.4400 hn         1 MOL       0.352000
@<TRIPOS>BOND
     1     1     2 1   
     2     1    13 1   
     3     1    14 1   
     4     1    15 1   
     5     2     3 1   
     6     2    10 1   
     7     2    16 1   
     8     3     4 1   
     9     3    17 1   
    10     3    18 1   
    11     4     5 1   
    12     4    19 1   
    13     4    20 1   
    14     5     6 1   
    15     5    21 1   
    16     5    22 1   
    17     6     7 2   
    18     6    23 1   
    19     7     8 1   
    20     7     9 1   
    21     8    24 1   
    22     8    25 1   
    23     9    26 1   
    24     9    27 1   
    25    10    11 2   
    26    10    12 1   
    27    12    28 1   
    28    12    29 1   
@<TRIPOS>SUBSTRUCTURE
     1 MOL         1 TEMP              0 ****  ****    0 ROOT
