@<TRIPOS>MOLECULE
MOL
  176   182     1     0     0
SMALL
bcc


@<TRIPOS>ATOM
      1 N1           7.7860     0.8640    -2.4310 ns         1 MOL      -0.527900
      2 C1           6.5970     0.6920    -3.2740 c3         1 MOL       0.030700
      3 C2           6.6790     1.6470    -4.4320 c          1 MOL       0.668100
      4 O1           7.4770     2.5850    -4.3310 o          1 MOL      -0.653100
      5 C3           5.2750     0.9340    -2.5250 c3         1 MOL       0.135100
      6 O2           5.3780     2.2160    -1.8620 os         1 MOL      -0.447900
      7 C4           4.9850    -0.1180    -1.4920 c3         1 MOL      -0.114100
      8 H1           8.4210     1.4550    -2.8990 hn         1 MOL       0.340500
      9 N2           5.9070     1.3810    -5.5030 ns         1 MOL      -0.549900
     10 C5           5.7420     2.3930    -6.5250 c3         1 MOL       0.047700
     11 C6           4.3430     2.2320    -7.1470 c3         1 MOL      -0.064700
     12 C7           3.1970     2.4190    -6.1840 c3         1 MOL      -0.102100
     13 C8           4.0020     2.9870    -8.4250 c3         1 MOL      -0.102100
     14 C9           6.8990     2.2690    -7.5180 c          1 MOL       0.665100
     15 O3           7.5680     1.2210    -7.5290 o          1 MOL      -0.659100
     16 H2           5.5400     0.4860    -5.6310 hn         1 MOL       0.356500
     17 N3           7.3320     3.2890    -8.2770 n          1 MOL      -0.428800
     18 C10          7.2770     4.7230    -7.9550 c3         1 MOL       0.024700
     19 C11          6.0140     5.5780    -8.1650 c          1 MOL       0.644100
     20 O4           5.4690     5.6450    -9.2750 o          1 MOL      -0.576100
     21 C12          8.4480     5.1930    -8.7930 c3         1 MOL      -0.076400
     22 C13          8.3970     4.4160   -10.0990 c3         1 MOL      -0.092400
     23 C14          7.8340     3.0610    -9.6450 c3         1 MOL       0.090000
     24 N4           5.5000     6.2240    -7.1070 n          1 MOL      -0.455800
     25 C15          6.0280     6.1540    -5.7590 c3         1 MOL       0.026000
     26 C16          5.2020     5.4070    -4.7140 c          1 MOL       0.636100
     27 O5           4.0520     5.0380    -4.9840 o          1 MOL      -0.582100
     28 C17          4.4610     7.2350    -7.3020 c3         1 MOL       0.057300
     29 N5           5.7820     5.1820    -3.5160 n          1 MOL      -0.456800
     30 C18          7.1610     5.6000    -3.3050 c3         1 MOL       0.067300
     31 C19          5.1770     4.6570    -2.3020 c3         1 MOL       0.075700
     32 C20          4.1620     5.7080    -1.6990 c3         1 MOL      -0.054700
     33 C21          2.7130     5.6580    -2.2310 c3         1 MOL      -0.101100
     34 C22          4.2330     5.7350    -0.1620 c3         1 MOL      -0.101100
     35 C23          4.6360     3.2450    -2.4230 c          1 MOL       0.628100
     36 O6           3.8010     2.9760    -3.2780 o          1 MOL      -0.519000
     37 C24          9.4570    -0.2090    -1.0580 cc         1 MOL      -0.386000
     38 C25          8.4590    -0.2360    -2.0780 c          1 MOL       0.706300
     39 O7           8.2180    -1.2960    -2.6790 o          1 MOL      -0.654100
     40 C26          9.1950    -0.4630     0.3140 cd         1 MOL       0.169800
     41 N6           7.9780    -0.7390     0.7770 nv         1 MOL      -0.823600
     42 C27         10.2410    -0.4380     1.2600 c          1 MOL       0.570500
     43 O8          10.0060    -0.6670     2.4460 o          1 MOL      -0.519100
     44 C28         11.5510    -0.1670     0.8840 cd         1 MOL      -0.218400
     45 O9          13.0770     0.3720    -0.8650 os         1 MOL      -0.375800
     46 C29         14.6690     0.9010    -2.5470 ca         1 MOL      -0.125600
     47 C30         14.9440     1.1380    -3.9140 ca         1 MOL      -0.108000
     48 C31         13.9200     1.0820    -4.8690 ca         1 MOL      -0.103000
     49 C32         12.5880     0.8030    -4.5060 ca         1 MOL      -0.142900
     50 C33         11.6030     0.7470    -5.5290 c          1 MOL       0.688700
     51 O10         10.9500     1.7290    -5.9190 o          1 MOL      -0.621100
     52 N7          11.0770     0.3070    -2.7130 nd         1 MOL      -0.629000
     53 C34         10.7820     0.0680    -1.4380 cc         1 MOL       0.449800
     54 C35         11.8250     0.0940    -0.4630 cc         1 MOL       0.202400
     55 C36         13.3510     0.6180    -2.1610 ca         1 MOL       0.220700
     56 C37         12.3010     0.5750    -3.1300 ca         1 MOL       0.290300
     57 C38         12.6510    -0.1650     1.9370 c3         1 MOL      -0.043900
     58 C39         15.7760     0.9460    -1.4980 c3         1 MOL      -0.053800
     59 H3           7.8470    -0.9150     1.7710 hn         1 MOL       0.452300
     60 H4           7.1830    -0.7800     0.1560 hn         1 MOL       0.452300
     61 N8          11.4380    -0.4710    -6.0710 ns         1 MOL      -0.531900
     62 C40         10.7160    -0.6140    -7.3360 c3         1 MOL       0.030700
     63 C41          9.5800    -1.5920    -7.2110 c          1 MOL       0.665100
     64 O11          9.6560    -2.4600    -6.3560 o          1 MOL      -0.641100
     65 C42         11.5570    -1.1080    -8.5100 c3         1 MOL       0.136100
     66 O12         12.4730    -2.1150    -8.0400 os         1 MOL      -0.434900
     67 C43         12.3080     0.0360    -9.1480 c3         1 MOL      -0.115100
     68 H5          10.9800    -1.0110    -5.3880 hn         1 MOL       0.343500
     69 N9           8.5310    -1.3890    -8.0110 ns         1 MOL      -0.553900
     70 C44          7.4370    -2.3260    -8.1220 c3         1 MOL       0.048700
     71 C45          6.9140    -2.3750    -9.5670 c3         1 MOL      -0.064700
     72 C46          5.6390    -3.2000    -9.7320 c3         1 MOL      -0.102100
     73 C47          8.0050    -2.8910   -10.5080 c3         1 MOL      -0.102100
     74 C48          6.3240    -2.0550    -7.1120 c          1 MOL       0.666100
     75 O13          5.7060    -0.9680    -7.1110 o          1 MOL      -0.659100
     76 H6           8.4800    -0.5590    -8.5250 hn         1 MOL       0.354500
     77 N10          6.1730    -2.9730    -6.1360 n          1 MOL      -0.428800
     78 C49          7.1740    -3.9590    -5.7100 c3         1 MOL       0.023700
     79 C50          7.4170    -5.1860    -6.6190 c          1 MOL       0.646100
     80 O14          6.4960    -5.4580    -7.4050 o          1 MOL      -0.575100
     81 C51          6.6740    -4.3170    -4.3120 c3         1 MOL      -0.077400
     82 C52          5.4950    -3.4390    -4.0470 c3         1 MOL      -0.092400
     83 C53          4.9350    -3.2420    -5.4290 c3         1 MOL       0.088000
     84 N11          8.5840    -5.8950    -6.7050 n          1 MOL      -0.456800
     85 C54          9.9710    -5.5590    -6.3090 c3         1 MOL       0.026000
     86 C55         10.8580    -4.9550    -7.4310 c          1 MOL       0.644100
     87 O15         10.2620    -4.3240    -8.3160 o          1 MOL      -0.596100
     88 C56          8.3910    -7.3240    -6.7570 c3         1 MOL       0.058300
     89 N12         12.2230    -5.0420    -7.5230 n          1 MOL      -0.468800
     90 C57         12.9450    -5.4160    -6.3190 c3         1 MOL       0.086300
     91 C58         13.1350    -4.4890    -8.5670 c3         1 MOL       0.086700
     92 C59         13.3970    -5.3420    -9.8790 c3         1 MOL      -0.074700
     93 C60         14.2620    -6.5500    -9.6350 c3         1 MOL      -0.093600
     94 C61         12.1450    -5.6990   -10.6790 c3         1 MOL      -0.093600
     95 C62         12.8790    -3.0410    -9.0060 c          1 MOL       0.638100
     96 O16         13.2660    -2.6470   -10.1250 o          1 MOL      -0.524000
     97 H7           6.5930    -0.3260    -3.6640 h1         1 MOL       0.127700
     98 H8           4.4560     0.9670    -3.2440 h1         1 MOL       0.096700
     99 H9           4.0400     0.1080    -0.9980 hc         1 MOL       0.051367
    100 H10          4.9180    -1.0930    -1.9740 hc         1 MOL       0.051367
    101 H11          5.7860    -0.1330    -0.7530 hc         1 MOL       0.051367
    102 H12          5.7980     3.3730    -6.0510 h1         1 MOL       0.092700
    103 H13          4.2910     1.1810    -7.4300 hc         1 MOL       0.060700
    104 H14          2.2530     2.2870    -6.7120 hc         1 MOL       0.047367
    105 H15          3.2710     1.6830    -5.3830 hc         1 MOL       0.047367
    106 H16          3.2380     3.4220    -5.7600 hc         1 MOL       0.047367
    107 H17          2.9780     2.7570    -8.7210 hc         1 MOL       0.047367
    108 H18          4.0970     4.0590    -8.2510 hc         1 MOL       0.047367
    109 H19          4.6860     2.6860    -9.2190 hc         1 MOL       0.047367
    110 H20          7.5670     4.8290    -6.9100 h1         1 MOL       0.106700
    111 H21          9.3790     4.9680    -8.2730 hc         1 MOL       0.056700
    112 H22          8.3410     6.2580    -9.0000 hc         1 MOL       0.056700
    113 H23          9.4110     4.2760   -10.4730 hc         1 MOL       0.061200
    114 H24          7.6850     4.8930   -10.7720 hc         1 MOL       0.061200
    115 H25          7.0040     2.7790   -10.2930 h1         1 MOL       0.063200
    116 H26          8.6390     2.3260    -9.6170 h1         1 MOL       0.063200
    117 H27          6.2290     7.1640    -5.4010 h1         1 MOL       0.081200
    118 H28          7.0320     5.7320    -5.7900 h1         1 MOL       0.081200
    119 H29          4.1690     7.6480    -6.3360 h1         1 MOL       0.053367
    120 H30          4.8450     8.0340    -7.9370 h1         1 MOL       0.053367
    121 H31          3.5940     6.7780    -7.7780 h1         1 MOL       0.053367
    122 H32          7.4680     5.3440    -2.2910 h1         1 MOL       0.048033
    123 H33          7.8090     5.0920    -4.0190 h1         1 MOL       0.048033
    124 H34          7.2400     6.6780    -3.4460 h1         1 MOL       0.048033
    125 H35          5.9900     4.5930    -1.5790 h1         1 MOL       0.076700
    126 H36          4.5430     6.6790    -2.0140 hc         1 MOL       0.051700
    127 H37          2.1180     6.4280    -1.7390 hc         1 MOL       0.045533
    128 H38          2.7140     5.8320    -3.3070 hc         1 MOL       0.045533
    129 H39          2.2830     4.6780    -2.0230 hc         1 MOL       0.045533
    130 H40          3.5230     6.4680     0.2220 hc         1 MOL       0.045533
    131 H41          3.9850     4.7490     0.2310 hc         1 MOL       0.045533
    132 H42          5.2410     6.0080     0.1510 hc         1 MOL       0.045533
    133 H43         15.9510     1.3650    -4.2310 ha         1 MOL       0.148000
    134 H44         14.1440     1.2550    -5.9110 ha         1 MOL       0.157000
    135 H45         13.6060     0.0650     1.4650 hc         1 MOL       0.056700
    136 H46         12.4290     0.5880     2.6930 hc         1 MOL       0.056700
    137 H47         12.7060    -1.1470     2.4080 hc         1 MOL       0.056700
    138 H48         15.3540     0.7370    -0.5150 hc         1 MOL       0.055367
    139 H49         16.5320     0.1980    -1.7350 hc         1 MOL       0.055367
    140 H50         16.2330     1.9350    -1.4940 hc         1 MOL       0.055367
    141 H51         10.3000     0.3580    -7.6010 h1         1 MOL       0.125700
    142 H52         10.8960    -1.5530    -9.2540 h1         1 MOL       0.095700
    143 H53         12.9010    -0.3380    -9.9820 hc         1 MOL       0.053033
    144 H54         11.5980     0.7790    -9.5120 hc         1 MOL       0.053033
    145 H55         12.9670     0.4940    -8.4110 hc         1 MOL       0.053033
    146 H56          7.8390    -3.3130    -7.8950 h1         1 MOL       0.095700
    147 H57          6.6820    -1.3530    -9.8650 hc         1 MOL       0.060700
    148 H58          5.3310    -3.1880   -10.7770 hc         1 MOL       0.046867
    149 H59          5.8280    -4.2280    -9.4210 hc         1 MOL       0.046867
    150 H60          4.8480    -2.7740    -9.1160 hc         1 MOL       0.046867
    151 H61          7.6220    -2.9210   -11.5280 hc         1 MOL       0.046867
    152 H62          8.8680    -2.2260   -10.4640 hc         1 MOL       0.046867
    153 H63          8.3040    -3.8940   -10.2030 hc         1 MOL       0.046867
    154 H64          8.1250    -3.4380    -5.5980 h1         1 MOL       0.110700
    155 H65          7.4550    -4.1040    -3.5820 hc         1 MOL       0.056200
    156 H66          6.3590    -5.3610    -4.2960 hc         1 MOL       0.056200
    157 H67          5.8420    -2.4810    -3.6610 hc         1 MOL       0.059200
    158 H68          4.7710    -3.9840    -3.4410 hc         1 MOL       0.059200
    159 H69          4.5240    -4.1880    -5.7820 h1         1 MOL       0.064200
    160 H70          4.3210    -2.3420    -5.4370 h1         1 MOL       0.064200
    161 H71         10.4560    -6.4480    -5.9060 h1         1 MOL       0.078700
    162 H72          9.9480    -4.8750    -5.4610 h1         1 MOL       0.078700
    163 H73          9.3590    -7.8200    -6.8240 h1         1 MOL       0.052367
    164 H74          7.8760    -7.6550    -5.8550 h1         1 MOL       0.052367
    165 H75          7.7920    -7.5790    -7.6310 h1         1 MOL       0.052367
    166 H76         14.0140    -5.4480    -6.5310 h1         1 MOL       0.041367
    167 H77         12.7520    -4.6830    -5.5360 h1         1 MOL       0.041367
    168 H78         12.6120    -6.3990    -5.9860 h1         1 MOL       0.041367
    169 H79         14.1080    -4.4500    -8.0770 h1         1 MOL       0.076700
    170 H80         13.9820    -4.6950   -10.5320 hc         1 MOL       0.070700
    171 H81         14.4040    -7.0910   -10.5710 hc         1 MOL       0.041033
    172 H82         15.2310    -6.2320    -9.2490 hc         1 MOL       0.041033
    173 H83         13.7790    -7.2030    -8.9080 hc         1 MOL       0.041033
    174 H84         12.4270    -6.2820   -11.5560 hc         1 MOL       0.041033
    175 H85         11.4700    -6.2850   -10.0560 hc         1 MOL       0.041033
    176 H86         11.6430    -4.7850   -10.9970 hc         1 MOL       0.041033
@<TRIPOS>BOND
     1     1     2 1   
     2     1     8 1   
     3     1    38 1   
     4     2     3 1   
     5     2     5 1   
     6     2    97 1   
     7     3     4 2   
     8     3     9 1   
     9     5     6 1   
    10     5     7 1   
    11     5    98 1   
    12     6    35 1   
    13     7    99 1   
    14     7   100 1   
    15     7   101 1   
    16     9    10 1   
    17     9    16 1   
    18    10    11 1   
    19    10    14 1   
    20    10   102 1   
    21    11    12 1   
    22    11    13 1   
    23    11   103 1   
    24    12   104 1   
    25    12   105 1   
    26    12   106 1   
    27    13   107 1   
    28    13   108 1   
    29    13   109 1   
    30    14    15 2   
    31    14    17 1   
    32    17    18 1   
    33    17    23 1   
    34    18    19 1   
    35    18    21 1   
    36    18   110 1   
    37    19    20 2   
    38    19    24 1   
    39    21    22 1   
    40    21   111 1   
    41    21   112 1   
    42    22    23 1   
    43    22   113 1   
    44    22   114 1   
    45    23   115 1   
    46    23   116 1   
    47    24    25 1   
    48    24    28 1   
    49    25    26 1   
    50    25   117 1   
    51    25   118 1   
    52    26    27 2   
    53    26    29 1   
    54    28   119 1   
    55    28   120 1   
    56    28   121 1   
    57    29    30 1   
    58    29    31 1   
    59    30   122 1   
    60    30   123 1   
    61    30   124 1   
    62    31    32 1   
    63    31    35 1   
    64    31   125 1   
    65    32    33 1   
    66    32    34 1   
    67    32   126 1   
    68    33   127 1   
    69    33   128 1   
    70    33   129 1   
    71    34   130 1   
    72    34   131 1   
    73    34   132 1   
    74    35    36 2   
    75    37    38 1   
    76    37    40 2   
    77    37    53 1   
    78    38    39 2   
    79    40    41 1   
    80    40    42 1   
    81    41    59 1   
    82    41    60 1   
    83    42    43 2   
    84    42    44 1   
    85    44    54 2   
    86    44    57 1   
    87    45    54 1   
    88    45    55 1   
    89    46    47 ar  
    90    46    55 ar  
    91    46    58 1   
    92    47    48 ar  
    93    47   133 1   
    94    48    49 ar  
    95    48   134 1   
    96    49    50 1   
    97    49    56 ar  
    98    50    51 2   
    99    50    61 1   
   100    52    53 2   
   101    52    56 1   
   102    53    54 1   
   103    55    56 ar  
   104    57   135 1   
   105    57   136 1   
   106    57   137 1   
   107    58   138 1   
   108    58   139 1   
   109    58   140 1   
   110    61    62 1   
   111    61    68 1   
   112    62    63 1   
   113    62    65 1   
   114    62   141 1   
   115    63    64 2   
   116    63    69 1   
   117    65    66 1   
   118    65    67 1   
   119    65   142 1   
   120    66    95 1   
   121    67   143 1   
   122    67   144 1   
   123    67   145 1   
   124    69    70 1   
   125    69    76 1   
   126    70    71 1   
   127    70    74 1   
   128    70   146 1   
   129    71    72 1   
   130    71    73 1   
   131    71   147 1   
   132    72   148 1   
   133    72   149 1   
   134    72   150 1   
   135    73   151 1   
   136    73   152 1   
   137    73   153 1   
   138    74    75 2   
   139    74    77 1   
   140    77    78 1   
   141    77    83 1   
   142    78    79 1   
   143    78    81 1   
   144    78   154 1   
   145    79    80 2   
   146    79    84 1   
   147    81    82 1   
   148    81   155 1   
   149    81   156 1   
   150    82    83 1   
   151    82   157 1   
   152    82   158 1   
   153    83   159 1   
   154    83   160 1   
   155    84    85 1   
   156    84    88 1   
   157    85    86 1   
   158    85   161 1   
   159    85   162 1   
   160    86    87 2   
   161    86    89 1   
   162    88   163 1   
   163    88   164 1   
   164    88   165 1   
   165    89    90 1   
   166    89    91 1   
   167    90   166 1   
   168    90   167 1   
   169    90   168 1   
   170    91    92 1   
   171    91    95 1   
   172    91   169 1   
   173    92    93 1   
   174    92    94 1   
   175    92   170 1   
   176    93   171 1   
   177    93   172 1   
   178    93   173 1   
   179    94   174 1   
   180    94   175 1   
   181    94   176 1   
   182    95    96 2   
@<TRIPOS>SUBSTRUCTURE
     1 MOL         1 TEMP              0 ****  ****    0 ROOT
