
                    3D
 Schrodinger Suite 2021-1.
 59 63  0  0  1  0            999 V2000
   12.8240   28.3930    1.9450 C   0  0  0  0  0  0
   11.7740   27.7240    1.0770 C   0  0  0  0  0  0
   12.5340   26.9150    2.1140 C   0  0  0  0  0  0
   11.6300   26.4860    2.9840 N   0  0  1  0  0  0
   11.6640   25.2700    3.5330 C   0  0  2  0  0  0
   12.3260   24.2750    2.9690 N   0  3  0  0  0  0
    9.1530   24.2350    6.8300 C   0  0  0  0  0  0
   10.4640   23.7470    6.7550 C   0  0  0  0  0  0
   11.2920   24.1270    5.6890 C   0  0  0  0  0  0
   10.8430   25.0000    4.7050 C   0  0  0  0  0  0
    9.5350   25.5160    4.7700 C   0  0  0  0  0  0
    8.6870   25.1280    5.8350 C   0  0  0  0  0  0
    8.2940   23.7940    7.9070 C   0  0  0  0  0  0
    6.9900   24.0790    8.2070 C   0  0  0  0  0  0
    6.6290   23.3230    9.4040 C   0  0  0  0  0  0
    7.7730   22.6790    9.7770 C   0  0  0  0  0  0
    8.8230   22.9040    8.8660 O   0  0  0  0  0  0
    8.0780   21.8840   10.8970 C   0  0  0  0  0  0
    9.3910   21.4310   10.9610 C   0  0  0  0  0  0
    9.8620   20.6820   12.0380 C   0  0  0  0  0  0
    8.9850   20.3720   13.0670 C   0  0  0  0  0  0
    7.6370   20.8330   12.9760 C   0  0  0  0  0  0
    7.1610   21.5960   11.8930 C   0  0  0  0  0  0
    9.4750   19.5040   14.1900 C   0  0  2  0  0  0
   10.7990   19.3060   14.3860 N   0  3  0  0  0  0
    8.5490   18.8320   14.9200 N   0  0  1  0  0  0
    8.7780   17.6520   15.5310 C   0  0  0  0  0  0
    7.6710   16.6210   15.5230 C   0  0  0  0  0  0
    7.8980   17.5070   16.7700 C   0  0  0  0  0  0
   12.1757   28.7869    2.7277 H   0  0  0  0  0  0
   13.6759   28.3256    1.2684 H   0  0  0  0  0  0
   12.3885   27.5038    0.2041 H   0  0  0  0  0  0
   10.8877   27.9652    1.6639 H   0  0  0  0  0  0
   13.2808   26.2040    1.7606 H   0  0  0  0  0  0
   11.6312   27.0872    3.7956 H   0  0  0  0  0  0
   12.5212   25.5354    4.1517 H   0  0  0  0  0  0
   12.2305   23.4434    3.5341 H   0  0  0  0  0  0
   11.9512   24.1002    2.0476 H   0  0  0  0  0  0
   13.3029   24.5199    2.8936 H   0  0  0  0  0  0
   10.8360   23.0789    7.5177 H   0  0  0  0  0  0
   12.2981   23.7401    5.6222 H   0  0  0  0  0  0
    9.1866   26.2014    4.0116 H   0  0  0  0  0  0
    7.6805   25.5163    5.8865 H   0  0  0  0  0  0
    6.4302   24.7630    7.5864 H   0  0  0  0  0  0
    5.6210   23.3699    9.7888 H   0  0  0  0  0  0
   10.0799   21.6573   10.1607 H   0  0  0  0  0  0
   10.8912   20.3553   12.0596 H   0  0  0  0  0  0
    6.9322   20.5990   13.7601 H   0  0  0  0  0  0
    6.1450   21.9529   11.8112 H   0  0  0  0  0  0
    9.4638   20.3423   14.8866 H   0  0  0  0  0  0
   10.9350   18.6989   15.1817 H   0  0  0  0  0  0
   11.2012   18.8783   13.5642 H   0  0  0  0  0  0
   11.2506   20.1928   14.5587 H   0  0  0  0  0  0
    8.2465   19.4075   15.6929 H   0  0  0  0  0  0
    9.8070   17.2975   15.5899 H   0  0  0  0  0  0
    8.2485   15.7477   15.8263 H   0  0  0  0  0  0
    6.8935   17.2087   15.0349 H   0  0  0  0  0  0
    7.1729   18.2904   16.5495 H   0  0  0  0  0  0
    8.5298   16.8274   17.3419 H   0  0  0  0  0  0
  1  2  1  0  0  0
  1  3  1  0  0  0
  1 30  1  0  0  0
  1 31  1  0  0  0
  2  3  1  0  0  0
  2 32  1  0  0  0
  2 33  1  0  0  0
  3  4  1  0  0  0
  3 34  1  0  0  0
  4  5  1  0  0  0
  4 35  1  0  0  0
  5  6  1  0  0  0
  5 10  1  0  0  0
  5 36  1  0  0  0
  6 37  1  0  0  0
  6 38  1  0  0  0
  6 39  1  0  0  0
  7  8  1  0  0  0
  7 12  2  0  0  0
  7 13  1  0  0  0
  8  9  2  0  0  0
  8 40  1  0  0  0
  9 10  1  0  0  0
  9 41  1  0  0  0
 10 11  2  0  0  0
 11 12  1  0  0  0
 11 42  1  0  0  0
 12 43  1  0  0  0
 13 14  2  0  0  0
 13 17  1  0  0  0
 14 15  1  0  0  0
 14 44  1  0  0  0
 15 16  2  0  0  0
 15 45  1  0  0  0
 16 17  1  0  0  0
 16 18  1  0  0  0
 18 19  1  0  0  0
 18 23  2  0  0  0
 19 20  2  0  0  0
 19 46  1  0  0  0
 20 21  1  0  0  0
 20 47  1  0  0  0
 21 22  2  0  0  0
 21 24  1  0  0  0
 22 23  1  0  0  0
 22 48  1  0  0  0
 23 49  1  0  0  0
 24 25  1  0  0  0
 24 26  1  0  0  0
 24 50  1  0  0  0
 25 51  1  0  0  0
 25 52  1  0  0  0
 25 53  1  0  0  0
 26 27  1  0  0  0
 26 54  1  0  0  0
 27 28  1  0  0  0
 27 29  1  0  0  0
 27 55  1  0  0  0
 28 29  1  0  0  0
 28 56  1  0  0  0
 28 57  1  0  0  0
 29 58  1  0  0  0
 29 59  1  0  0  0
M  CHG  2   6   1  25   1
M  END
> <s_pdb_PDB_format_version>
3.0

> <b_ppw_prepared>
1

> <s_ppw_prepared_with_version>
2021-1

> <s_ppw_het_states>
eJztlrGOgzAQRH8FpUaRdwCD71ei/EF03VVR/v28zg5YSpXiipwmRXYW49F6eELcT3b6Gi71Z+OQruNwQdQp6hx1iZrHwbyu0W9RS1RLFHQ0Who9jaZGV8sU9DUaG51BZ+yz0hl0Bp2xxJygM+gMOqM5u/LTIzZUOXHvIWudQ9ZK81rzIf3ozGY7pJ8f1PSr6yUul25nExYLLmwfy3fOXPFm5YoPxomayLwt97d5w7GaKF3jCYJxe9Jg5J62MXbwLK1hIu3qHpoPufQNI3IBjuMCW99wHL/6bGpnZ1tTbe6Pcfj+ud2e/+2ZCVkhK2SFrJAVsu8hm5jTHouQ/Txkp7LgbWT5SIhs+hBk9ZYVskJWyApZIStk/wBZfcsKWSErZIWsPgyE7H9EFue55Bdir49fyK+kcA==

$$$$
