@<TRIPOS>MOLECULE
MOL
   59    63     1     0     0
SMALL
bcc


@<TRIPOS>ATOM
      1 C1          12.8240    28.3930     1.9450 cx         1 MOL      -0.128400
      2 C2          11.7740    27.7240     1.0770 cx         1 MOL      -0.128400
      3 C3          12.5340    26.9150     2.1140 cx         1 MOL       0.091500
      4 N1          11.6300    26.4860     2.9840 n7         1 MOL      -0.837200
      5 C4          11.6640    25.2700     3.5330 c3         1 MOL       0.498000
      6 N2          12.3260    24.2750     2.9690 nz         1 MOL      -0.905100
      7 C5           9.1530    24.2350     6.8300 ca         1 MOL      -0.073000
      8 C6          10.4640    23.7470     6.7550 ca         1 MOL      -0.102250
      9 C7          11.2920    24.1270     5.6890 ca         1 MOL      -0.098500
     10 C8          10.8430    25.0000     4.7050 ca         1 MOL      -0.186300
     11 C9           9.5350    25.5160     4.7700 ca         1 MOL      -0.098500
     12 C10          8.6870    25.1280     5.8350 ca         1 MOL      -0.102250
     13 C11          8.2940    23.7940     7.9070 cc         1 MOL       0.290200
     14 C12          6.9900    24.0790     8.2070 cd         1 MOL      -0.206300
     15 C13          6.6290    23.3230     9.4040 cd         1 MOL      -0.206300
     16 C14          7.7730    22.6790     9.7770 cc         1 MOL       0.290200
     17 O1           8.8230    22.9040     8.8660 os         1 MOL      -0.355800
     18 C15          8.0780    21.8840    10.8970 ca         1 MOL      -0.073000
     19 C16          9.3910    21.4310    10.9610 ca         1 MOL      -0.102250
     20 C17          9.8620    20.6820    12.0380 ca         1 MOL      -0.098500
     21 C18          8.9850    20.3720    13.0670 ca         1 MOL      -0.186300
     22 C19          7.6370    20.8330    12.9760 ca         1 MOL      -0.098500
     23 C20          7.1610    21.5960    11.8930 ca         1 MOL      -0.102250
     24 C21          9.4750    19.5040    14.1900 c3         1 MOL       0.498000
     25 N3          10.7990    19.3060    14.3860 nz         1 MOL      -0.905100
     26 N4           8.5490    18.8320    14.9200 n7         1 MOL      -0.837200
     27 C22          8.7780    17.6520    15.5310 cx         1 MOL       0.091500
     28 C23          7.6710    16.6210    15.5230 cx         1 MOL      -0.128400
     29 C24          7.8980    17.5070    16.7700 cx         1 MOL      -0.128400
     30 H1          12.1760    28.7870     2.7280 hc         1 MOL       0.093450
     31 H2          13.6760    28.3260     1.2680 hc         1 MOL       0.093450
     32 H3          12.3890    27.5040     0.2040 hc         1 MOL       0.093450
     33 H4          10.8880    27.9650     1.6640 hc         1 MOL       0.093450
     34 H5          13.2810    26.2040     1.7610 h1         1 MOL       0.103700
     35 H6          11.6310    27.0870     3.7960 hn         1 MOL       0.434800
     36 H7          12.5210    25.5350     4.1520 hx         1 MOL       0.112700
     37 H8          12.2300    23.4430     3.5340 hn         1 MOL       0.446633
     38 H9          11.9510    24.1000     2.0480 hn         1 MOL       0.446633
     39 H10         13.3030    24.5200     2.8940 hn         1 MOL       0.446633
     40 H11         10.8360    23.0790     7.5180 ha         1 MOL       0.164250
     41 H12         12.2980    23.7400     5.6220 ha         1 MOL       0.145750
     42 H13          9.1870    26.2010     4.0120 ha         1 MOL       0.145750
     43 H14          7.6810    25.5160     5.8860 ha         1 MOL       0.164250
     44 H15          6.4300    24.7630     7.5860 ha         1 MOL       0.179500
     45 H16          5.6210    23.3700     9.7890 ha         1 MOL       0.179500
     46 H17         10.0800    21.6570    10.1610 ha         1 MOL       0.164250
     47 H18         10.8910    20.3550    12.0600 ha         1 MOL       0.145750
     48 H19          6.9320    20.5990    13.7600 ha         1 MOL       0.145750
     49 H20          6.1450    21.9530    11.8110 ha         1 MOL       0.164250
     50 H21          9.4640    20.3420    14.8870 hx         1 MOL       0.112700
     51 H22         10.9350    18.6990    15.1820 hn         1 MOL       0.446633
     52 H23         11.2010    18.8780    13.5640 hn         1 MOL       0.446633
     53 H24         11.2510    20.1930    14.5590 hn         1 MOL       0.446633
     54 H25          8.2460    19.4070    15.6930 hn         1 MOL       0.434800
     55 H26          9.8070    17.2970    15.5900 h1         1 MOL       0.103700
     56 H27          8.2480    15.7480    15.8260 hc         1 MOL       0.093450
     57 H28          6.8940    17.2090    15.0350 hc         1 MOL       0.093450
     58 H29          7.1730    18.2900    16.5490 hc         1 MOL       0.093450
     59 H30          8.5300    16.8270    17.3420 hc         1 MOL       0.093450
@<TRIPOS>BOND
     1     1     2 1   
     2     1     3 1   
     3     1    30 1   
     4     1    31 1   
     5     2     3 1   
     6     2    32 1   
     7     2    33 1   
     8     3     4 1   
     9     3    34 1   
    10     4     5 1   
    11     4    35 1   
    12     5     6 1   
    13     5    10 1   
    14     5    36 1   
    15     6    37 1   
    16     6    38 1   
    17     6    39 1   
    18     7     8 ar  
    19     7    12 ar  
    20     7    13 1   
    21     8     9 ar  
    22     8    40 1   
    23     9    10 ar  
    24     9    41 1   
    25    10    11 ar  
    26    11    12 ar  
    27    11    42 1   
    28    12    43 1   
    29    13    14 2   
    30    13    17 1   
    31    14    15 1   
    32    14    44 1   
    33    15    16 2   
    34    15    45 1   
    35    16    17 1   
    36    16    18 1   
    37    18    19 ar  
    38    18    23 ar  
    39    19    20 ar  
    40    19    46 1   
    41    20    21 ar  
    42    20    47 1   
    43    21    22 ar  
    44    21    24 1   
    45    22    23 ar  
    46    22    48 1   
    47    23    49 1   
    48    24    25 1   
    49    24    26 1   
    50    24    50 1   
    51    25    51 1   
    52    25    52 1   
    53    25    53 1   
    54    26    27 1   
    55    26    54 1   
    56    27    28 1   
    57    27    29 1   
    58    27    55 1   
    59    28    29 1   
    60    28    56 1   
    61    28    57 1   
    62    29    58 1   
    63    29    59 1   
@<TRIPOS>SUBSTRUCTURE
     1 MOL         1 TEMP              0 ****  ****    0 ROOT
