
                    3D
 Schrodinger Suite 2021-1.
 59 60  0  0  1  0            999 V2000
   14.5500   25.7210   64.1510 C   0  0  0  0  0  0
   14.3250   24.4740   63.6240 N   0  3  0  0  0  0
   15.0670   26.7230   63.3770 N   0  0  0  0  0  0
   14.2660   26.0350   65.4700 N   0  0  0  0  0  0
   13.7080   25.1880   66.5310 C   0  0  0  0  0  0
   12.4780   25.7920   67.2700 C   0  0  0  0  0  0
   11.8040   26.6290   66.6750 O   0  0  0  0  0  0
   12.2250   25.2810   68.5070 N   0  0  0  0  0  0
   11.1340   25.5520   69.4060 C   0  0  0  0  0  0
   10.9320   24.7790   70.5550 C   0  0  0  0  0  0
    9.7500   25.2650   71.1120 C   0  0  0  0  0  0
    9.3370   26.3020   70.2610 N   0  0  0  0  0  0
    8.2200   27.2740   70.5010 C   0  0  0  0  0  0
   10.1610   26.4980   69.1930 C   0  0  0  0  0  0
    8.9490   24.7680   72.1870 C   0  0  0  0  0  0
    7.7620   25.0400   72.2980 O   0  0  0  0  0  0
    9.6170   23.9960   73.0640 N   0  0  0  0  0  0
    8.9780   23.3800   74.1970 C   0  0  0  0  0  0
    9.6450   22.4500   75.0000 C   0  0  0  0  0  0
    8.7670   22.1340   76.0240 C   0  0  0  0  0  0
    7.6240   22.9080   75.7880 N   0  0  0  0  0  0
    6.4440   23.0060   76.7030 C   0  0  0  0  0  0
    7.7140   23.6730   74.6610 C   0  0  0  0  0  0
    8.8230   21.1320   77.0240 C   0  0  0  0  0  0
    7.8830   20.4020   77.3320 O   0  0  0  0  0  0
    9.9680   21.0310   77.7020 N   0  0  0  0  0  0
   10.2620   20.0860   78.7640 C   0  0  0  0  0  0
    9.4220   20.3450   79.9950 C   0  0  0  0  0  0
    9.2350   19.2070   80.9810 C   0  0  0  0  0  0
    8.4840   19.5220   82.0670 N   0  3  0  0  0  0
    9.8120   18.0080   80.7440 N   0  0  0  0  0  0
   13.9428   23.7416   64.2051 H   0  0  0  0  0  0
   14.5416   24.2886   62.6551 H   0  0  0  0  0  0
   15.2284   27.6369   63.7756 H   0  0  0  0  0  0
   15.2874   26.5491   62.4068 H   0  0  0  0  0  0
   14.4455   26.9662   65.8173 H   0  0  0  0  0  0
   14.4880   24.9584   67.2569 H   0  0  0  0  0  0
   13.4375   24.2181   66.1135 H   0  0  0  0  0  0
   12.8572   24.6064   68.9137 H   0  0  0  0  0  0
   11.6388   24.0054   70.8165 H   0  0  0  0  0  0
    8.1459   27.9590   69.6563 H   0  0  0  0  0  0
    7.2817   26.7302   70.6105 H   0  0  0  0  0  0
    8.4195   27.8401   71.4108 H   0  0  0  0  0  0
   10.2159   27.1441   68.3293 H   0  0  0  0  0  0
   10.6055   23.8302   72.9400 H   0  0  0  0  0  0
   10.6460   22.1354   74.7443 H   0  0  0  0  0  0
    5.7026   23.6775   76.2700 H   0  0  0  0  0  0
    6.0042   22.0177   76.8367 H   0  0  0  0  0  0
    6.7645   23.3944   77.6697 H   0  0  0  0  0  0
    7.0890   24.3698   74.1222 H   0  0  0  0  0  0
   10.7361   21.6521   77.4913 H   0  0  0  0  0  0
   11.3182   20.1513   79.0254 H   0  0  0  0  0  0
   10.0803   19.0720   78.4077 H   0  0  0  0  0  0
    8.4441   20.7163   79.6884 H   0  0  0  0  0  0
    9.8188   21.2127   80.5221 H   0  0  0  0  0  0
    8.3063   18.8262   82.7772 H   0  0  0  0  0  0
    8.1029   20.4522   82.1649 H   0  0  0  0  0  0
    9.6883   17.2497   81.3995 H   0  0  0  0  0  0
   10.3669   17.8703   79.9114 H   0  0  0  0  0  0
  1  2  2  0  0  0
  1  3  1  0  0  0
  1  4  1  0  0  0
  2 32  1  0  0  0
  2 33  1  0  0  0
  3 34  1  0  0  0
  3 35  1  0  0  0
  4  5  1  0  0  0
  4 36  1  0  0  0
  5  6  1  0  0  0
  5 37  1  0  0  0
  5 38  1  0  0  0
  6  7  2  0  0  0
  6  8  1  0  0  0
  8  9  1  0  0  0
  8 39  1  0  0  0
  9 10  1  0  0  0
  9 14  2  0  0  0
 10 11  2  0  0  0
 10 40  1  0  0  0
 11 12  1  0  0  0
 11 15  1  0  0  0
 12 13  1  0  0  0
 12 14  1  0  0  0
 13 41  1  0  0  0
 13 42  1  0  0  0
 13 43  1  0  0  0
 14 44  1  0  0  0
 15 16  2  0  0  0
 15 17  1  0  0  0
 17 18  1  0  0  0
 17 45  1  0  0  0
 18 19  1  0  0  0
 18 23  2  0  0  0
 19 20  2  0  0  0
 19 46  1  0  0  0
 20 21  1  0  0  0
 20 24  1  0  0  0
 21 22  1  0  0  0
 21 23  1  0  0  0
 22 47  1  0  0  0
 22 48  1  0  0  0
 22 49  1  0  0  0
 23 50  1  0  0  0
 24 25  2  0  0  0
 24 26  1  0  0  0
 26 27  1  0  0  0
 26 51  1  0  0  0
 27 28  1  0  0  0
 27 52  1  0  0  0
 27 53  1  0  0  0
 28 29  1  0  0  0
 28 54  1  0  0  0
 28 55  1  0  0  0
 29 30  2  0  0  0
 29 31  1  0  0  0
 30 56  1  0  0  0
 30 57  1  0  0  0
 31 58  1  0  0  0
 31 59  1  0  0  0
M  CHG  2   2   1  30   1
M  END
> <s_pdb_PDB_format_version>
3.0

> <b_ppw_prepared>
1

> <s_ppw_prepared_with_version>
2021-1

> <s_ppw_het_states>
eJxNkksOwjAQQ68SZR1Qxkl/XKXqDRA7Voi7Mw7jqiywPYQXM/STLT/S7i8rqR4l7SjJqC1yD51C59AldA3dQq3KiGiQEdMENVFNWBPXBDaRITLOriJDZIgMkSEyRIbIELlV/ehBpuM+nI7RoKQWB9z2sK5TWNc5rOsSX3O7xtR1C0utF991CYem4Mb0T4ygq8a0XYP6jCOzAAyLPqFRlWG2S+DuoEVzx9CyuWc7g+7hFLgG1eER7h1n0FZooDo0UB0aqA5NOxswjAaebvXu809uqz+u7mv1Brl3Jb8sT9UTD35Ler2fz//7cXx/mK6aLA==

$$$$
