@<TRIPOS>MOLECULE
MOL
   59    60     1     0     0
SMALL
bcc


@<TRIPOS>ATOM
      1 C1          14.5500    25.7210    64.1510 cz         1 MOL       0.530300
      2 N1          14.3250    24.4740    63.6240 nv         1 MOL      -0.519600
      3 N2          15.0670    26.7230    63.3770 nv         1 MOL      -0.503700
      4 N3          14.2660    26.0350    65.4700 nu         1 MOL      -0.381200
      5 C2          13.7080    25.1880    66.5310 c3         1 MOL      -0.060700
      6 C3          12.4780    25.7920    67.2700 c          1 MOL       0.654100
      7 O1          11.8040    26.6290    66.6750 o          1 MOL      -0.594100
      8 N4          12.2250    25.2810    68.5070 ns         1 MOL      -0.405100
      9 C4          11.1340    25.5520    69.4060 cc         1 MOL      -0.075400
     10 C5          10.9320    24.7790    70.5550 cc         1 MOL      -0.169000
     11 C6           9.7500    25.2650    71.1120 cd         1 MOL      -0.171900
     12 N5           9.3370    26.3020    70.2610 na         1 MOL       0.003900
     13 C7           8.2200    27.2740    70.5010 c3         1 MOL       0.009600
     14 C8          10.1610    26.4980    69.1930 cd         1 MOL      -0.112300
     15 C9           8.9490    24.7680    72.1870 c          1 MOL       0.708700
     16 O2           7.7620    25.0400    72.2980 o          1 MOL      -0.605100
     17 N6           9.6170    23.9960    73.0640 ns         1 MOL      -0.437100
     18 C10          8.9780    23.3800    74.1970 cc         1 MOL      -0.029400
     19 C11          9.6450    22.4500    75.0000 cc         1 MOL      -0.161000
     20 C12          8.7670    22.1340    76.0240 cd         1 MOL      -0.216900
     21 N7           7.6240    22.9080    75.7880 na         1 MOL       0.004900
     22 C13          6.4440    23.0060    76.7030 c3         1 MOL       0.013600
     23 C14          7.7140    23.6730    74.6610 cd         1 MOL      -0.105300
     24 C15          8.8230    21.1320    77.0240 c          1 MOL       0.733700
     25 O3           7.8830    20.4020    77.3320 o          1 MOL      -0.691100
     26 N8           9.9680    21.0310    77.7020 ns         1 MOL      -0.574900
     27 C16         10.2620    20.0860    78.7640 c3         1 MOL       0.110000
     28 C17          9.4220    20.3450    79.9950 c3         1 MOL      -0.193700
     29 C18          9.2350    19.2070    80.9810 c2         1 MOL       0.448800
     30 N9           8.4840    19.5220    82.0670 nv         1 MOL      -0.467100
     31 N10          9.8120    18.0080    80.7440 nv         1 MOL      -0.451200
     32 H1          13.9430    23.7420    64.2050 hn         1 MOL       0.329700
     33 H2          14.5420    24.2890    62.6550 hn         1 MOL       0.329700
     34 H3          15.2280    27.6370    63.7760 hn         1 MOL       0.329700
     35 H4          15.2870    26.5490    62.4070 hn         1 MOL       0.329700
     36 H5          14.4450    26.9660    65.8170 hn         1 MOL       0.353700
     37 H6          14.4880    24.9580    67.2570 h1         1 MOL       0.084200
     38 H7          13.4380    24.2180    66.1140 h1         1 MOL       0.084200
     39 H8          12.8570    24.6060    68.9140 hn         1 MOL       0.329500
     40 H9          11.6390    24.0050    70.8170 ha         1 MOL       0.153000
     41 H10          8.1460    27.9590    69.6560 h1         1 MOL       0.076700
     42 H11          7.2820    26.7300    70.6110 h1         1 MOL       0.076700
     43 H12          8.4190    27.8400    71.4110 h1         1 MOL       0.076700
     44 H13         10.2160    27.1440    68.3290 h4         1 MOL       0.209000
     45 H14         10.6050    23.8300    72.9400 hn         1 MOL       0.326500
     46 H15         10.6460    22.1350    74.7440 ha         1 MOL       0.150000
     47 H16          5.7030    23.6770    76.2700 h1         1 MOL       0.071700
     48 H17          6.0040    22.0180    76.8370 h1         1 MOL       0.071700
     49 H18          6.7640    23.3940    77.6700 h1         1 MOL       0.071700
     50 H19          7.0890    24.3700    74.1220 h4         1 MOL       0.220000
     51 H20         10.7360    21.6520    77.4910 hn         1 MOL       0.336500
     52 H21         11.3180    20.1510    79.0250 h1         1 MOL       0.073200
     53 H22         10.0800    19.0720    78.4080 h1         1 MOL       0.073200
     54 H23          8.4440    20.7160    79.6880 hc         1 MOL       0.108700
     55 H24          9.8190    21.2130    80.5220 hc         1 MOL       0.108700
     56 H25          8.3060    18.8260    82.7770 hn         1 MOL       0.333700
     57 H26          8.1030    20.4520    82.1650 hn         1 MOL       0.333700
     58 H27          9.6880    17.2500    81.4000 hn         1 MOL       0.333700
     59 H28         10.3670    17.8700    79.9110 hn         1 MOL       0.333700
@<TRIPOS>BOND
     1     1     2 2   
     2     1     3 1   
     3     1     4 1   
     4     2    32 1   
     5     2    33 1   
     6     3    34 1   
     7     3    35 1   
     8     4     5 1   
     9     4    36 1   
    10     5     6 1   
    11     5    37 1   
    12     5    38 1   
    13     6     7 2   
    14     6     8 1   
    15     8     9 1   
    16     8    39 1   
    17     9    10 1   
    18     9    14 2   
    19    10    11 2   
    20    10    40 1   
    21    11    12 1   
    22    11    15 1   
    23    12    13 1   
    24    12    14 1   
    25    13    41 1   
    26    13    42 1   
    27    13    43 1   
    28    14    44 1   
    29    15    16 2   
    30    15    17 1   
    31    17    18 1   
    32    17    45 1   
    33    18    19 1   
    34    18    23 2   
    35    19    20 2   
    36    19    46 1   
    37    20    21 1   
    38    20    24 1   
    39    21    22 1   
    40    21    23 1   
    41    22    47 1   
    42    22    48 1   
    43    22    49 1   
    44    23    50 1   
    45    24    25 2   
    46    24    26 1   
    47    26    27 1   
    48    26    51 1   
    49    27    28 1   
    50    27    52 1   
    51    27    53 1   
    52    28    29 1   
    53    28    54 1   
    54    28    55 1   
    55    29    30 2   
    56    29    31 1   
    57    30    56 1   
    58    30    57 1   
    59    31    58 1   
    60    31    59 1   
@<TRIPOS>SUBSTRUCTURE
     1 MOL         1 TEMP              0 ****  ****    0 ROOT
