
                    3D
 Schrodinger Suite 2021-1.
 53 57  0  0  1  0            999 V2000
   28.2400   22.8700   39.0800 C   0  0  0  0  0  0
   29.2300   23.5700   38.3600 C   0  0  0  0  0  0
   29.8300   22.9400   37.2700 C   0  0  0  0  0  0
   29.5200   21.5700   37.0400 C   0  0  0  0  0  0
   28.6600   20.8500   37.8900 C   0  0  0  0  0  0
   27.9600   21.5500   38.8500 C   0  0  0  0  0  0
   28.8400   24.9900   40.0400 C   0  0  0  0  0  0
   29.2500   25.9000   41.0100 C   0  0  0  0  0  0
   29.1100   27.3000   41.0100 C   0  0  0  0  0  0
   30.6600   36.4700   44.1800 C   0  0  0  0  0  0
   30.0500   36.3800   42.9700 C   0  0  0  0  0  0
   29.7000   37.6300   42.3000 C   0  0  0  0  0  0
   30.1200   38.8400   42.8200 C   0  0  0  0  0  0
   30.8500   38.8700   44.0300 C   0  0  0  0  0  0
   31.1900   37.6600   44.6900 C   0  0  0  0  0  0
   30.6500   34.1500   43.4300 C   0  0  0  0  0  0
   30.5000   32.7400   43.5700 C   0  0  0  0  0  0
   30.3500   31.7300   42.6200 C   0  0  0  0  0  0
   29.8300   30.0300   44.3100 C   0  0  0  0  0  0
   29.9700   30.3700   42.9600 C   0  0  0  0  0  0
   29.6400   29.4600   41.8700 C   0  0  0  0  0  0
   29.3600   28.1100   42.1200 C   0  0  0  0  0  0
   29.4000   27.7100   43.5400 C   0  0  0  0  0  0
   29.6500   28.6800   44.5300 C   0  0  0  0  0  0
   29.1100   26.5700   43.8800 O   0  0  0  0  0  0
   31.2500   34.9400   44.8300 S   0  0  0  0  0  0
   27.6800   23.7700   40.4600 S   0  0  0  0  0  0
   29.9700   35.0400   42.5200 N   0  0  0  0  0  0
   29.5000   24.7600   38.8700 N   0  0  0  0  0  0
   29.6600   34.6700   41.1600 C   0  0  0  0  0  0
   30.6200   25.6100   38.4400 C   0  0  0  0  0  0
   30.5055   23.4910   36.6324 H   0  0  0  0  0  0
   29.9488   21.0541   36.1936 H   0  0  0  0  0  0
   28.5631   19.7800   37.7796 H   0  0  0  0  0  0
   27.1891   21.0540   39.4211 H   0  0  0  0  0  0
   29.7463   25.5502   41.9032 H   0  0  0  0  0  0
   28.7915   27.8108   40.1133 H   0  0  0  0  0  0
   29.1110   37.6110   41.3949 H   0  0  0  0  0  0
   29.8902   39.7593   42.3019 H   0  0  0  0  0  0
   31.1512   39.8158   44.4557 H   0  0  0  0  0  0
   31.8336   37.6366   45.5570 H   0  0  0  0  0  0
   30.4905   32.2929   44.5531 H   0  0  0  0  0  0
   30.5185   31.9426   41.5746 H   0  0  0  0  0  0
   29.8680   30.7991   45.0673 H   0  0  0  0  0  0
   29.6089   29.8237   40.8536 H   0  0  0  0  0  0
   29.6962   28.2857   45.5344 H   0  0  0  0  0  0
   29.1908   26.4895   44.8332 H   0  0  0  0  0  0
   29.6591   33.5838   41.0696 H   0  0  0  0  0  0
   28.6767   35.0571   40.8927 H   0  0  0  0  0  0
   30.4097   35.0893   40.4890 H   0  0  0  0  0  0
   30.6179   26.5344   39.0176 H   0  0  0  0  0  0
   31.5601   25.0828   38.6024 H   0  0  0  0  0  0
   30.5135   25.8439   37.3807 H   0  0  0  0  0  0
  1  2  2  0  0  0
  1  6  1  0  0  0
  1 27  1  0  0  0
  2  3  1  0  0  0
  2 29  1  0  0  0
  3  4  2  0  0  0
  3 32  1  0  0  0
  4  5  1  0  0  0
  4 33  1  0  0  0
  5  6  2  0  0  0
  5 34  1  0  0  0
  6 35  1  0  0  0
  7  8  1  0  0  0
  7 27  1  0  0  0
  7 29  2  0  0  0
  8  9  2  0  0  0
  8 36  1  0  0  0
  9 22  1  0  0  0
  9 37  1  0  0  0
 10 11  2  0  0  0
 10 15  1  0  0  0
 10 26  1  0  0  0
 11 12  1  0  0  0
 11 28  1  0  0  0
 12 13  2  0  0  0
 12 38  1  0  0  0
 13 14  1  0  0  0
 13 39  1  0  0  0
 14 15  2  0  0  0
 14 40  1  0  0  0
 15 41  1  0  0  0
 16 17  1  0  0  0
 16 26  1  0  0  0
 16 28  2  0  0  0
 17 18  2  0  0  0
 17 42  1  0  0  0
 18 20  1  0  0  0
 18 43  1  0  0  0
 19 20  2  0  0  0
 19 24  1  0  0  0
 19 44  1  0  0  0
 20 21  1  0  0  0
 21 22  2  0  0  0
 21 45  1  0  0  0
 22 23  1  0  0  0
 23 24  2  0  0  0
 23 25  1  0  0  0
 24 46  1  0  0  0
 25 47  1  0  0  0
 28 30  1  0  0  0
 29 31  1  0  0  0
 30 48  1  0  0  0
 30 49  1  0  0  0
 30 50  1  0  0  0
 31 51  1  0  0  0
 31 52  1  0  0  0
 31 53  1  0  0  0
M  END
> <i_pdb_PDB_Model>
1

> <s_pdb_PDB_format_version>
3.0

> <b_ppw_prepared>
1

> <s_ppw_prepared_with_version>
2021-1

> <s_ppw_het_states>
eJxNkUFuwzAMBL9i5OwW3pUdJ/1K4B8EvfUU5O8VJY5iH7xcShpS1Ouiy8/0qJ/maTnm6eHUkrqmbqnX1D31lnpP1UIAUSAFU0AFVWAFV4AF2ZA9eoVsyIZsyIZsyIZsyAVyaeSIYh6V7tbBPFWIMgyOclLlEwZMObg1D1bdMrs1hnNyt8zuJ9zeGc6hEoaa6rXPGKuH2U4rHk3WLfLJmHotWwBE9ysra6eZ1xB9hfmgr51m3krDRLCw7d6Nh6FOywqjfjnzmB4DLf2Mh+GmUb1QJwZWGq26r+W75l/vefr9ez77/zje/43pmrM=

$$$$
