@<TRIPOS>MOLECULE
MOL
   53    57     1     0     0
SMALL
bcc


@<TRIPOS>ATOM
      1 C1          28.2400    22.8700    39.0800 ca         1 MOL      -0.102100
      2 C2          29.2300    23.5700    38.3600 ca         1 MOL      -0.005200
      3 C3          29.8300    22.9400    37.2700 ca         1 MOL      -0.141000
      4 C4          29.5200    21.5700    37.0400 ca         1 MOL      -0.091000
      5 C5          28.6600    20.8500    37.8900 ca         1 MOL      -0.142000
      6 C6          27.9600    21.5500    38.8500 ca         1 MOL      -0.064000
      7 C7          28.8400    24.9900    40.0400 cc         1 MOL       0.246500
      8 C8          29.2500    25.9000    41.0100 ce         1 MOL      -0.310600
      9 C9          29.1100    27.3000    41.0100 cf         1 MOL      -0.004200
     10 C10         30.6600    36.4700    44.1800 ca         1 MOL      -0.054100
     11 C11         30.0500    36.3800    42.9700 ca         1 MOL      -0.010200
     12 C12         29.7000    37.6300    42.3000 ca         1 MOL      -0.152000
     13 C13         30.1200    38.8400    42.8200 ca         1 MOL      -0.112000
     14 C14         30.8500    38.8700    44.0300 ca         1 MOL      -0.155000
     15 C15         31.1900    37.6600    44.6900 ca         1 MOL      -0.087000
     16 C16         30.6500    34.1500    43.4300 cc         1 MOL       0.118500
     17 C17         30.5000    32.7400    43.5700 ce         1 MOL      -0.168600
     18 C18         30.3500    31.7300    42.6200 cf         1 MOL      -0.275200
     19 C19         29.8300    30.0300    44.3100 ca         1 MOL       0.007000
     20 C20         29.9700    30.3700    42.9600 ca         1 MOL       0.011200
     21 C21         29.6400    29.4600    41.8700 ca         1 MOL      -0.301000
     22 C22         29.3600    28.1100    42.1200 ca         1 MOL      -0.062800
     23 C23         29.4000    27.7100    43.5400 ca         1 MOL       0.196100
     24 C24         29.6500    28.6800    44.5300 ca         1 MOL      -0.264000
     25 O1          29.1100    26.5700    43.8800 oh         1 MOL      -0.488100
     26 S1          31.2500    34.9400    44.8300 ss         1 MOL      -0.127100
     27 S2          27.6800    23.7700    40.4600 ss         1 MOL       0.030900
     28 N1          29.9700    35.0400    42.5200 na         1 MOL      -0.143200
     29 N2          29.5000    24.7600    38.8700 na         1 MOL      -0.159200
     30 C25         29.6600    34.6700    41.1600 c3         1 MOL       0.003600
     31 C26         30.6200    25.6100    38.4400 c3         1 MOL       0.018600
     32 H1          30.5060    23.4910    36.6320 ha         1 MOL       0.147000
     33 H2          29.9490    21.0540    36.1940 ha         1 MOL       0.143000
     34 H3          28.5630    19.7800    37.7800 ha         1 MOL       0.144000
     35 H4          27.1890    21.0540    39.4210 ha         1 MOL       0.147000
     36 H5          29.7460    25.5500    41.9030 ha         1 MOL       0.168000
     37 H6          28.7910    27.8110    40.1130 ha         1 MOL       0.125000
     38 H7          29.1110    37.6110    41.3950 ha         1 MOL       0.136000
     39 H8          29.8900    39.7590    42.3020 ha         1 MOL       0.127000
     40 H9          31.1510    39.8160    44.4560 ha         1 MOL       0.129000
     41 H10         31.8340    37.6370    45.5570 ha         1 MOL       0.136000
     42 H11         30.4910    32.2930    44.5530 ha         1 MOL       0.112000
     43 H12         30.5180    31.9430    41.5750 ha         1 MOL       0.123000
     44 H13         29.8680    30.7990    45.0670 ha         1 MOL       0.137000
     45 H14         29.6090    29.8240    40.8540 ha         1 MOL       0.126000
     46 H15         29.6960    28.2860    45.5340 ha         1 MOL       0.131000
     47 H16         29.1910    26.4890    44.8330 ho         1 MOL       0.430000
     48 H17         29.6590    33.5840    41.0700 h1         1 MOL       0.044700
     49 H18         28.6770    35.0570    40.8930 h1         1 MOL       0.044700
     50 H19         30.4100    35.0890    40.4890 h1         1 MOL       0.044700
     51 H20         30.6180    26.5340    39.0180 h1         1 MOL       0.063700
     52 H21         31.5600    25.0830    38.6020 h1         1 MOL       0.063700
     53 H22         30.5140    25.8440    37.3810 h1         1 MOL       0.063700
@<TRIPOS>BOND
     1     1     2 ar  
     2     1     6 ar  
     3     1    27 1   
     4     2     3 ar  
     5     2    29 1   
     6     3     4 ar  
     7     3    32 1   
     8     4     5 ar  
     9     4    33 1   
    10     5     6 ar  
    11     5    34 1   
    12     6    35 1   
    13     7     8 1   
    14     7    27 1   
    15     7    29 2   
    16     8     9 2   
    17     8    36 1   
    18     9    22 1   
    19     9    37 1   
    20    10    11 ar  
    21    10    15 ar  
    22    10    26 1   
    23    11    12 ar  
    24    11    28 1   
    25    12    13 ar  
    26    12    38 1   
    27    13    14 ar  
    28    13    39 1   
    29    14    15 ar  
    30    14    40 1   
    31    15    41 1   
    32    16    17 1   
    33    16    26 1   
    34    16    28 2   
    35    17    18 2   
    36    17    42 1   
    37    18    20 1   
    38    18    43 1   
    39    19    20 ar  
    40    19    24 ar  
    41    19    44 1   
    42    20    21 ar  
    43    21    22 ar  
    44    21    45 1   
    45    22    23 ar  
    46    23    24 ar  
    47    23    25 1   
    48    24    46 1   
    49    25    47 1   
    50    28    30 1   
    51    29    31 1   
    52    30    48 1   
    53    30    49 1   
    54    30    50 1   
    55    31    51 1   
    56    31    52 1   
    57    31    53 1   
@<TRIPOS>SUBSTRUCTURE
     1 MOL         1 TEMP              0 ****  ****    0 ROOT
