
                    3D
 Schrodinger Suite 2021-1.
 38 40  0  0  1  0            999 V2000
    2.0770   18.1380   17.5880 N   0  0  0  0  0  0
    0.8110   17.8580   18.0370 C   0  0  0  0  0  0
   -0.0570   18.8550   17.6100 C   0  0  0  0  0  0
    0.4530   20.9260   16.0670 C   0  0  0  0  0  0
    1.4920   21.5120   15.3740 C   0  0  0  0  0  0
    2.7970   21.0110   15.4140 C   0  0  0  0  0  0
    3.1330   19.8770   16.1590 C   0  0  0  0  0  0
    2.0410   19.2840   16.8190 C   0  0  0  0  0  0
    0.7290   19.7580   16.7970 C   0  0  0  0  0  0
    3.8740   21.6810   14.6660 C   0  0  0  0  0  0
    3.7710   22.9430   14.3280 N   0  3  0  0  0  0
    4.9570   21.0090   14.3600 N   0  0  0  0  0  0
    0.6030   16.7960   19.0580 C   0  0  0  0  0  0
   -0.6440   16.2470   19.2960 C   0  0  0  0  0  0
   -0.8340   15.2540   20.2530 C   0  0  0  0  0  0
    0.2720   14.8330   20.9750 C   0  0  0  0  0  0
    1.5040   15.3600   20.7490 C   0  0  0  0  0  0
    1.7090   16.3420   19.7860 C   0  0  0  0  0  0
    0.0810   13.7760   21.9880 C   0  0  0  0  0  0
    1.0220   13.5680   22.8850 N   0  3  0  0  0  0
   -1.0410   13.0900   21.9740 N   0  0  0  0  0  0
    2.8469   17.5345   17.8392 H   0  0  0  0  0  0
   -1.0950   18.8311   17.9073 H   0  0  0  0  0  0
   -0.5327   21.3663   16.0365 H   0  0  0  0  0  0
    1.3122   22.3908   14.7725 H   0  0  0  0  0  0
    4.1566   19.5337   16.1879 H   0  0  0  0  0  0
    4.5168   23.3909   13.8150 H   0  0  0  0  0  0
    2.9458   23.4677   14.5805 H   0  0  0  0  0  0
    5.7021   21.4583   13.8472 H   0  0  0  0  0  0
    5.0464   20.0419   14.6370 H   0  0  0  0  0  0
   -1.5004   16.5875   18.7329 H   0  0  0  0  0  0
   -1.8182   14.8387   20.4122 H   0  0  0  0  0  0
    2.3517   15.0171   21.3236 H   0  0  0  0  0  0
    2.6886   16.7537   19.5928 H   0  0  0  0  0  0
    0.9037   12.8480   23.5834 H   0  0  0  0  0  0
    1.8622   14.1284   22.8747 H   0  0  0  0  0  0
   -1.1961   12.3616   22.6563 H   0  0  0  0  0  0
   -1.7475   13.2916   21.2810 H   0  0  0  0  0  0
  1  2  1  0  0  0
  1  8  1  0  0  0
  1 22  1  0  0  0
  2  3  2  0  0  0
  2 13  1  0  0  0
  3  9  1  0  0  0
  3 23  1  0  0  0
  4  5  2  0  0  0
  4  9  1  0  0  0
  4 24  1  0  0  0
  5  6  1  0  0  0
  5 25  1  0  0  0
  6  7  2  0  0  0
  6 10  1  0  0  0
  7  8  1  0  0  0
  7 26  1  0  0  0
  8  9  2  0  0  0
 10 11  2  0  0  0
 10 12  1  0  0  0
 11 27  1  0  0  0
 11 28  1  0  0  0
 12 29  1  0  0  0
 12 30  1  0  0  0
 13 14  2  0  0  0
 13 18  1  0  0  0
 14 15  1  0  0  0
 14 31  1  0  0  0
 15 16  2  0  0  0
 15 32  1  0  0  0
 16 17  1  0  0  0
 16 19  1  0  0  0
 17 18  2  0  0  0
 17 33  1  0  0  0
 18 34  1  0  0  0
 19 20  2  0  0  0
 19 21  1  0  0  0
 20 35  1  0  0  0
 20 36  1  0  0  0
 21 37  1  0  0  0
 21 38  1  0  0  0
M  CHG  2  11   1  20   1
M  END
> <s_pdb_PDB_format_version>
3.0

> <b_ppw_prepared>
1

> <s_ppw_prepared_with_version>
2021-1

> <s_ppw_het_states>
eJxNUUkSgzAM+0qGc9qJXJbQrzD8gOmtJ4a/104lgEMkG0eynb1D906Lf8iprDktRnwRe+JAHIkTsRJnIoqIK6IRSUKakCikCslCupAwpGyFgtZ6DRZdm2xyqirIya2MNGzBkWZSb2BgRX9lPTWSOk4siJSsp8uktnummWPcKzibCu9efyLQ9cjG+NAeYgWmXcQacAbqr2WrysK93IO2cI8e5en5vTPzt43gyOnz3bb/ua7HD8oLahg=

$$$$
