@<TRIPOS>MOLECULE
MOL
   38    40     1     0     0
SMALL
bcc


@<TRIPOS>ATOM
      1 N1           2.0770    18.1380    17.5880 na         1 MOL      -0.151300
      2 C1           0.8110    17.8580    18.0370 cc         1 MOL      -0.037200
      3 C2          -0.0570    18.8550    17.6100 cc         1 MOL      -0.146000
      4 C3           0.4530    20.9260    16.0670 cd         1 MOL      -0.050000
      5 C4           1.4920    21.5120    15.3740 cc         1 MOL      -0.126000
      6 C5           2.7970    21.0110    15.4140 cc         1 MOL      -0.144000
      7 C6           3.1330    19.8770    16.1590 cc         1 MOL      -0.088000
      8 C7           2.0410    19.2840    16.8190 cd         1 MOL      -0.038200
      9 C8           0.7290    19.7580    16.7970 cd         1 MOL      -0.046000
     10 C9           3.8740    21.6810    14.6660 c2         1 MOL       0.504000
     11 N2           3.7710    22.9430    14.3280 nv         1 MOL      -0.801600
     12 N3           4.9570    21.0090    14.3600 nv         1 MOL      -0.801600
     13 C10          0.6030    16.7960    19.0580 cd         1 MOL       0.031000
     14 C11         -0.6440    16.2470    19.2960 cd         1 MOL      -0.108500
     15 C12         -0.8340    15.2540    20.2530 cc         1 MOL      -0.073500
     16 C13          0.2720    14.8330    20.9750 cc         1 MOL      -0.164000
     17 C14          1.5040    15.3600    20.7490 cc         1 MOL      -0.073500
     18 C15          1.7090    16.3420    19.7860 cd         1 MOL      -0.108500
     19 C16          0.0810    13.7760    21.9880 c2         1 MOL       0.503000
     20 N4           1.0220    13.5680    22.8850 nv         1 MOL      -0.798600
     21 N5          -1.0410    13.0900    21.9740 nv         1 MOL      -0.798600
     22 H1           2.8470    17.5350    17.8390 hn         1 MOL       0.316700
     23 H2          -1.0950    18.8310    17.9070 ha         1 MOL       0.182000
     24 H3          -0.5330    21.3660    16.0370 ha         1 MOL       0.174000
     25 H4           1.3120    22.3910    14.7730 ha         1 MOL       0.155000
     26 H5           4.1570    19.5340    16.1880 ha         1 MOL       0.153000
     27 H6           4.5170    23.3910    13.8150 hn         1 MOL       0.484550
     28 H7           2.9460    23.4680    14.5810 hn         1 MOL       0.484550
     29 H8           5.7020    21.4580    13.8470 hn         1 MOL       0.484550
     30 H9           5.0460    20.0420    14.6370 hn         1 MOL       0.484550
     31 H10         -1.5000    16.5870    18.7330 ha         1 MOL       0.167000
     32 H11         -1.8180    14.8390    20.4120 ha         1 MOL       0.160000
     33 H12          2.3520    15.0170    21.3240 ha         1 MOL       0.160000
     34 H13          2.6890    16.7540    19.5930 ha         1 MOL       0.167000
     35 H14          0.9040    12.8480    23.5830 hn         1 MOL       0.486300
     36 H15          1.8620    14.1280    22.8750 hn         1 MOL       0.486300
     37 H16         -1.1960    12.3620    22.6560 hn         1 MOL       0.486300
     38 H17         -1.7480    13.2920    21.2810 hn         1 MOL       0.486300
@<TRIPOS>BOND
     1     1     2 1   
     2     1     8 1   
     3     1    22 1   
     4     2     3 1   
     5     2    13 2   
     6     3     9 2   
     7     3    23 1   
     8     4     5 2   
     9     4     9 1   
    10     4    24 1   
    11     5     6 1   
    12     5    25 1   
    13     6     7 1   
    14     6    10 2   
    15     7     8 2   
    16     7    26 1   
    17     8     9 1   
    18    10    11 1   
    19    10    12 1   
    20    11    27 1   
    21    11    28 1   
    22    12    29 1   
    23    12    30 1   
    24    13    14 1   
    25    13    18 1   
    26    14    15 2   
    27    14    31 1   
    28    15    16 1   
    29    15    32 1   
    30    16    17 1   
    31    16    19 2   
    32    17    18 2   
    33    17    33 1   
    34    18    34 1   
    35    19    20 1   
    36    19    21 1   
    37    20    35 1   
    38    20    36 1   
    39    21    37 1   
    40    21    38 1   
@<TRIPOS>SUBSTRUCTURE
     1 MOL         1 TEMP              0 ****  ****    0 ROOT
