
                    3D
 Schrodinger Suite 2021-1.
 41 43  0  0  1  0            999 V2000
    8.0380   23.6600    8.4010 C   0  0  0  0  0  0
    6.7300   23.9700    8.7710 C   0  0  0  0  0  0
    6.3700   23.2220    9.9710 C   0  0  0  0  0  0
    7.5000   22.4960   10.2640 C   0  0  0  0  0  0
    8.5420   22.7360    9.3150 O   0  0  0  0  0  0
    8.8990   24.0900    7.3210 C   0  0  0  0  0  0
   10.1030   23.4490    7.0360 C   0  0  0  0  0  0
   10.8770   23.8420    5.9230 C   0  0  0  0  0  0
   10.4690   24.8870    5.0670 C   0  0  0  0  0  0
    9.2610   25.5330    5.3750 C   0  0  0  0  0  0
    8.5030   25.1220    6.4880 C   0  0  0  0  0  0
   11.2270   25.3000    3.8440 C   0  0  0  0  0  0
   12.0510   24.4980    3.1980 N   0  0  0  0  0  0
   11.1240   26.4890    3.2960 N   0  3  0  0  0  0
    7.8320   21.6000   11.3200 C   0  0  0  0  0  0
    9.1850   21.2350   11.4050 C   0  0  0  0  0  0
    9.6550   20.4300   12.4350 C   0  0  0  0  0  0
    8.7790   19.9560   13.4180 C   0  0  0  0  0  0
    7.4020   20.3070   13.3370 C   0  0  0  0  0  0
    6.9220   21.1370   12.2790 C   0  0  0  0  0  0
    9.3680   19.1370   14.5160 C   0  0  0  0  0  0
   10.6840   19.1900   14.7730 N   0  0  0  0  0  0
    8.6060   18.3510   15.2910 N   0  3  0  0  0  0
    6.1556   24.6732    8.1862 H   0  0  0  0  0  0
    5.3863   23.3342   10.4024 H   0  0  0  0  0  0
   10.4499   22.6454    7.6687 H   0  0  0  0  0  0
   11.8083   23.3390    5.7082 H   0  0  0  0  0  0
    8.9113   26.3472    4.7576 H   0  0  0  0  0  0
    7.5791   25.6471    6.6805 H   0  0  0  0  0  0
   12.5376   24.8287    2.3771 H   0  0  0  0  0  0
   12.1954   23.5531    3.5242 H   0  0  0  0  0  0
   11.6604   26.7125    2.4699 H   0  0  0  0  0  0
   10.5084   27.1799    3.7006 H   0  0  0  0  0  0
    9.8856   21.5812   10.6595 H   0  0  0  0  0  0
   10.7015   20.1668   12.4801 H   0  0  0  0  0  0
    6.7077   19.9448   14.0808 H   0  0  0  0  0  0
    5.8791   21.4091   12.2095 H   0  0  0  0  0  0
   11.0758   18.6324   15.5184 H   0  0  0  0  0  0
   11.2827   19.7875   14.2211 H   0  0  0  0  0  0
    9.0293   17.8059   16.0284 H   0  0  0  0  0  0
    7.6089   18.3043   15.1372 H   0  0  0  0  0  0
  1  2  2  0  0  0
  1  5  1  0  0  0
  1  6  1  0  0  0
  2  3  1  0  0  0
  2 24  1  0  0  0
  3  4  2  0  0  0
  3 25  1  0  0  0
  4  5  1  0  0  0
  4 15  1  0  0  0
  6  7  2  0  0  0
  6 11  1  0  0  0
  7  8  1  0  0  0
  7 26  1  0  0  0
  8  9  2  0  0  0
  8 27  1  0  0  0
  9 10  1  0  0  0
  9 12  1  0  0  0
 10 11  2  0  0  0
 10 28  1  0  0  0
 11 29  1  0  0  0
 12 13  1  0  0  0
 12 14  2  0  0  0
 13 30  1  0  0  0
 13 31  1  0  0  0
 14 32  1  0  0  0
 14 33  1  0  0  0
 15 16  2  0  0  0
 15 20  1  0  0  0
 16 17  1  0  0  0
 16 34  1  0  0  0
 17 18  2  0  0  0
 17 35  1  0  0  0
 18 19  1  0  0  0
 18 21  1  0  0  0
 19 20  2  0  0  0
 19 36  1  0  0  0
 20 37  1  0  0  0
 21 22  1  0  0  0
 21 23  2  0  0  0
 22 38  1  0  0  0
 22 39  1  0  0  0
 23 40  1  0  0  0
 23 41  1  0  0  0
M  CHG  2  14   1  23   1
M  END
> <s_pdb_PDB_format_version>
3.0

> <b_ppw_prepared>
1

> <s_ppw_prepared_with_version>
2021-1

> <s_ppw_het_states>
eJxNkDsOwzAMQ69iZDYKU863Vwl8g6BbpyB3r+SQbTOElCw9yzoHDM+0+4ecSstpN2qljtSJOlMX6krdqCgyIkJIiAmHohtRISzEhcAQ2US276wiWw1guHiHZ6135jTpopxmWj+ttK4ja8dfbQwn700LK6IfTHtupXXdWOEar4e86fJyt5q2AQ3QA43QL53/AhMssrEYaEOxHNOWYkFQYBoxsgEwbcw0Tg9qnHhUHqVUT5xXTq/3cdz/1q4PEStxqg==

$$$$
