@<TRIPOS>MOLECULE
MOL
   41    43     1     0     0
SMALL
bcc


@<TRIPOS>ATOM
      1 C1           8.0380    23.6600     8.4010 cc         1 MOL       0.179700
      2 C2           6.7300    23.9700     8.7710 cc         1 MOL      -0.197300
      3 C3           6.3700    23.2220     9.9710 cd         1 MOL      -0.197300
      4 C4           7.5000    22.4960    10.2640 cd         1 MOL       0.179700
      5 O1           8.5420    22.7360     9.3150 os         1 MOL      -0.354800
      6 C5           8.8990    24.0900     7.3210 cd         1 MOL       0.054000
      7 C6          10.1030    23.4490     7.0360 cd         1 MOL      -0.107000
      8 C7          10.8770    23.8420     5.9230 cc         1 MOL      -0.075000
      9 C8          10.4690    24.8870     5.0670 cc         1 MOL      -0.172000
     10 C9           9.2610    25.5330     5.3750 cc         1 MOL      -0.075000
     11 C10          8.5030    25.1220     6.4880 cd         1 MOL      -0.107000
     12 C11         11.2270    25.3000     3.8440 c2         1 MOL       0.506000
     13 N1          12.0510    24.4980     3.1980 nv         1 MOL      -0.802100
     14 N2          11.1240    26.4890     3.2960 nv         1 MOL      -0.802100
     15 C12          7.8320    21.6000    11.3200 cc         1 MOL       0.054000
     16 C13          9.1850    21.2350    11.4050 cc         1 MOL      -0.107000
     17 C14          9.6550    20.4300    12.4350 cd         1 MOL      -0.075000
     18 C15          8.7790    19.9560    13.4180 cd         1 MOL      -0.172000
     19 C16          7.4020    20.3070    13.3370 cd         1 MOL      -0.075000
     20 C17          6.9220    21.1370    12.2790 cc         1 MOL      -0.107000
     21 C18          9.3680    19.1370    14.5160 c2         1 MOL       0.506000
     22 N3          10.6840    19.1900    14.7730 nv         1 MOL      -0.802100
     23 N4           8.6060    18.3510    15.2910 nv         1 MOL      -0.802100
     24 H1           6.1560    24.6730     8.1860 ha         1 MOL       0.184000
     25 H2           5.3860    23.3340    10.4020 ha         1 MOL       0.184000
     26 H3          10.4500    22.6450     7.6690 ha         1 MOL       0.170000
     27 H4          11.8080    23.3390     5.7080 ha         1 MOL       0.156000
     28 H5           8.9110    26.3470     4.7580 ha         1 MOL       0.156000
     29 H6           7.5790    25.6470     6.6810 ha         1 MOL       0.170000
     30 H7          12.5380    24.8290     2.3770 hn         1 MOL       0.485050
     31 H8          12.1950    23.5530     3.5240 hn         1 MOL       0.485050
     32 H9          11.6600    26.7120     2.4700 hn         1 MOL       0.485050
     33 H10         10.5080    27.1800     3.7010 hn         1 MOL       0.485050
     34 H11          9.8860    21.5810    10.6590 ha         1 MOL       0.170000
     35 H12         10.7010    20.1670    12.4800 ha         1 MOL       0.156000
     36 H13          6.7080    19.9450    14.0810 ha         1 MOL       0.156000
     37 H14          5.8790    21.4090    12.2100 ha         1 MOL       0.170000
     38 H15         11.0760    18.6320    15.5180 hn         1 MOL       0.485050
     39 H16         11.2830    19.7880    14.2210 hn         1 MOL       0.485050
     40 H17          9.0290    17.8060    16.0280 hn         1 MOL       0.485050
     41 H18          7.6090    18.3040    15.1370 hn         1 MOL       0.485050
@<TRIPOS>BOND
     1     1     2 1   
     2     1     5 1   
     3     1     6 2   
     4     2     3 2   
     5     2    24 1   
     6     3     4 1   
     7     3    25 1   
     8     4     5 1   
     9     4    15 2   
    10     6     7 1   
    11     6    11 1   
    12     7     8 2   
    13     7    26 1   
    14     8     9 1   
    15     8    27 1   
    16     9    10 1   
    17     9    12 2   
    18    10    11 2   
    19    10    28 1   
    20    11    29 1   
    21    12    13 1   
    22    12    14 1   
    23    13    30 1   
    24    13    31 1   
    25    14    32 1   
    26    14    33 1   
    27    15    16 1   
    28    15    20 1   
    29    16    17 2   
    30    16    34 1   
    31    17    18 1   
    32    17    35 1   
    33    18    19 1   
    34    18    21 2   
    35    19    20 2   
    36    19    36 1   
    37    20    37 1   
    38    21    22 1   
    39    21    23 1   
    40    22    38 1   
    41    22    39 1   
    42    23    40 1   
    43    23    41 1   
@<TRIPOS>SUBSTRUCTURE
     1 MOL         1 TEMP              0 ****  ****    0 ROOT
