@<TRIPOS>MOLECULE
MOL
   82    86     1     0     0
SMALL
bcc


@<TRIPOS>ATOM
      1 C1          19.8520    24.6370    33.0040 ca         1 MOL      -0.113500
      2 N1          20.0920    17.1390    33.0420 ny         1 MOL      -0.763750
      3 O1          18.1970    18.6170    34.3980 os         1 MOL      -0.479100
      4 C2          19.6960    23.7020    34.0230 ca         1 MOL      -0.164550
      5 N2          28.1930    19.9150    31.5760 ny         1 MOL      -0.763750
      6 O2          28.9120    21.2930    33.9380 os         1 MOL      -0.479100
      7 C3          21.1190    25.1330    32.6870 ca         1 MOL      -0.076500
      8 N3          18.6000    21.5020    34.4940 ny         1 MOL      -0.763750
      9 C4          22.2280    24.7370    33.4360 ca         1 MOL       0.005000
     10 N4          26.8840    23.3020    34.9160 ny         1 MOL      -0.763750
     11 C5          22.0270    23.9170    34.5790 ca         1 MOL      -0.058000
     12 C6          20.7650    23.4000    34.8700 ca         1 MOL      -0.065500
     13 C7          23.5360    25.0080    33.0020 ca         1 MOL      -0.076500
     14 C8          24.5490    24.5080    33.7810 ca         1 MOL      -0.113500
     15 C9          24.3940    23.7910    34.9640 ca         1 MOL      -0.164550
     16 C10         23.0980    23.4660    35.3560 ca         1 MOL      -0.065500
     17 C11         20.3990    16.6140    31.6830 c3         1 MOL       0.164600
     18 C12         25.0620    18.0920    31.3590 ca         1 MOL      -0.065500
     19 C13         26.0490    18.8930    30.7870 ca         1 MOL      -0.164550
     20 C14         25.6990    19.8430    29.8240 ca         1 MOL      -0.113500
     21 C15         24.3760    19.9380    29.3490 ca         1 MOL      -0.076500
     22 C16         23.3960    19.1200    29.9190 ca         1 MOL       0.005000
     23 C17         23.7380    18.2120    30.9420 ca         1 MOL      -0.058000
     24 C18         22.0840    19.1820    29.4450 ca         1 MOL      -0.076500
     25 C19         21.1230    18.3410    30.0120 ca         1 MOL      -0.113500
     26 C20         21.4620    17.4530    31.0280 ca         1 MOL      -0.164550
     27 C21         22.7660    17.3880    31.5070 ca         1 MOL      -0.065500
     28 C22         18.8980    16.4340    33.6230 c3         1 MOL       0.088050
     29 C23         18.3720    17.2380    34.8140 c3         1 MOL       0.102150
     30 C24         17.4980    19.4430    35.3470 c3         1 MOL       0.102150
     31 C25         17.2790    20.8210    34.7160 c3         1 MOL       0.088050
     32 C26         18.3950    22.9320    34.1210 c3         1 MOL       0.164600
     33 C27         27.4970    18.6610    31.1470 c3         1 MOL       0.164600
     34 C28         29.4500    19.5890    32.3200 c3         1 MOL       0.088050
     35 C29         29.9630    20.8360    33.0600 c3         1 MOL       0.102150
     36 C30         29.2130    22.5040    34.6530 c3         1 MOL       0.102150
     37 C31         28.0750    22.7680    35.6550 c3         1 MOL       0.088050
     38 C32         25.6040    23.2130    35.6960 c3         1 MOL       0.164600
     39 H1          18.9910    24.9840    32.4530 ha         1 MOL       0.155750
     40 H2          19.9030    18.1300    32.9850 hn         1 MOL       0.453675
     41 H3          20.8910    17.0000    33.6450 hn         1 MOL       0.453675
     42 H4          27.5800    20.4530    32.1710 hn         1 MOL       0.453675
     43 H5          28.4180    20.4700    30.7630 hn         1 MOL       0.453675
     44 H6          21.2390    25.8220    31.8640 ha         1 MOL       0.183500
     45 H7          19.1020    21.0300    33.7550 hn         1 MOL       0.453675
     46 H8          19.1510    21.4500    35.3390 hn         1 MOL       0.453675
     47 H9          26.7800    22.8040    34.0430 hn         1 MOL       0.453675
     48 H10         27.0530    24.2640    34.6580 hn         1 MOL       0.453675
     49 H11         20.6080    22.7740    35.7360 ha         1 MOL       0.143250
     50 H12         23.6980    25.5810    32.1010 ha         1 MOL       0.183500
     51 H13         25.5780    24.6590    33.4910 ha         1 MOL       0.155750
     52 H14         22.9120    22.8770    36.2420 ha         1 MOL       0.143250
     53 H15         19.4950    16.6330    31.0740 hx         1 MOL       0.124075
     54 H16         20.7470    15.5840    31.7620 hx         1 MOL       0.124075
     55 H17         25.3230    17.3780    32.1260 ha         1 MOL       0.143250
     56 H18         26.4470    20.5170    29.4340 ha         1 MOL       0.155750
     57 H19         24.1350    20.6330    28.5590 ha         1 MOL       0.183500
     58 H20         21.8280    19.8710    28.6540 ha         1 MOL       0.183500
     59 H21         20.1020    18.3750    29.6620 ha         1 MOL       0.155750
     60 H22         23.0300    16.7110    32.3060 ha         1 MOL       0.143250
     61 H23         19.1910    15.4390    33.9580 hx         1 MOL       0.130325
     62 H24         18.1180    16.3550    32.8650 hx         1 MOL       0.130325
     63 H25         17.4130    16.8300    35.1320 h1         1 MOL       0.098450
     64 H26         19.0940    17.1940    35.6290 h1         1 MOL       0.098450
     65 H27         18.1000    19.5490    36.2490 h1         1 MOL       0.098450
     66 H28         16.5330    18.9920    35.5790 h1         1 MOL       0.098450
     67 H29         16.7650    20.7060    33.7620 hx         1 MOL       0.130325
     68 H30         16.6630    21.4300    35.3780 hx         1 MOL       0.130325
     69 H31         17.8690    22.9860    33.1680 hx         1 MOL       0.124075
     70 H32         17.7460    23.4090    34.8560 hx         1 MOL       0.124075
     71 H33         27.5580    17.9220    31.9460 hx         1 MOL       0.124075
     72 H34         28.0190    18.2320    30.2920 hx         1 MOL       0.124075
     73 H35         30.2090    19.2460    31.6170 hx         1 MOL       0.130325
     74 H36         29.2500    18.7960    33.0410 hx         1 MOL       0.130325
     75 H37         30.8400    20.5720    33.6510 h1         1 MOL       0.098450
     76 H38         30.1970    21.6170    32.3360 h1         1 MOL       0.098450
     77 H39         29.2770    23.3340    33.9500 h1         1 MOL       0.098450
     78 H40         30.1520    22.3830    35.1940 h1         1 MOL       0.098450
     79 H41         27.8060    21.8360    36.1520 hx         1 MOL       0.130325
     80 H42         28.4030    23.5010    36.3920 hx         1 MOL       0.130325
     81 H43         25.7270    23.7240    36.6510 hx         1 MOL       0.124075
     82 H44         25.4080    22.1720    35.9520 hx         1 MOL       0.124075
@<TRIPOS>BOND
     1     1     4 ar  
     2     1     7 ar  
     3     1    39 1   
     4     2    17 1   
     5     2    28 1   
     6     2    40 1   
     7     2    41 1   
     8     3    29 1   
     9     3    30 1   
    10     4    12 ar  
    11     4    32 1   
    12     5    33 1   
    13     5    34 1   
    14     5    42 1   
    15     5    43 1   
    16     6    35 1   
    17     6    36 1   
    18     7     9 ar  
    19     7    44 1   
    20     8    31 1   
    21     8    32 1   
    22     8    45 1   
    23     8    46 1   
    24     9    11 ar  
    25     9    13 ar  
    26    10    37 1   
    27    10    38 1   
    28    10    47 1   
    29    10    48 1   
    30    11    12 ar  
    31    11    16 ar  
    32    12    49 1   
    33    13    14 ar  
    34    13    50 1   
    35    14    15 ar  
    36    14    51 1   
    37    15    16 ar  
    38    15    38 1   
    39    16    52 1   
    40    17    26 1   
    41    17    53 1   
    42    17    54 1   
    43    18    19 ar  
    44    18    23 ar  
    45    18    55 1   
    46    19    20 ar  
    47    19    33 1   
    48    20    21 ar  
    49    20    56 1   
    50    21    22 ar  
    51    21    57 1   
    52    22    23 ar  
    53    22    24 ar  
    54    23    27 ar  
    55    24    25 ar  
    56    24    58 1   
    57    25    26 ar  
    58    25    59 1   
    59    26    27 ar  
    60    27    60 1   
    61    28    29 1   
    62    28    61 1   
    63    28    62 1   
    64    29    63 1   
    65    29    64 1   
    66    30    31 1   
    67    30    65 1   
    68    30    66 1   
    69    31    67 1   
    70    31    68 1   
    71    32    69 1   
    72    32    70 1   
    73    33    71 1   
    74    33    72 1   
    75    34    35 1   
    76    34    73 1   
    77    34    74 1   
    78    35    75 1   
    79    35    76 1   
    80    36    37 1   
    81    36    77 1   
    82    36    78 1   
    83    37    79 1   
    84    37    80 1   
    85    38    81 1   
    86    38    82 1   
@<TRIPOS>SUBSTRUCTURE
     1 MOL         1 TEMP              0 ****  ****    0 ROOT
