
                    3D
 Schrodinger Suite 2021-1.
 82 86  0  0  1  0            999 V2000
   19.8520   24.6370   33.0040 C   0  0  0  0  0  0
   20.0920   17.1390   33.0420 N   0  3  0  0  0  0
   18.1970   18.6170   34.3980 O   0  0  0  0  0  0
   19.6960   23.7020   34.0230 C   0  0  0  0  0  0
   28.1930   19.9150   31.5760 N   0  3  0  0  0  0
   28.9120   21.2930   33.9380 O   0  0  0  0  0  0
   21.1190   25.1330   32.6870 C   0  0  0  0  0  0
   18.6000   21.5020   34.4940 N   0  3  0  0  0  0
   22.2280   24.7370   33.4360 C   0  0  0  0  0  0
   26.8840   23.3020   34.9160 N   0  3  0  0  0  0
   22.0270   23.9170   34.5790 C   0  0  0  0  0  0
   20.7650   23.4000   34.8700 C   0  0  0  0  0  0
   23.5360   25.0080   33.0020 C   0  0  0  0  0  0
   24.5490   24.5080   33.7810 C   0  0  0  0  0  0
   24.3940   23.7910   34.9640 C   0  0  0  0  0  0
   23.0980   23.4660   35.3560 C   0  0  0  0  0  0
   20.3990   16.6140   31.6830 C   0  0  0  0  0  0
   25.0620   18.0920   31.3590 C   0  0  0  0  0  0
   26.0490   18.8930   30.7870 C   0  0  0  0  0  0
   25.6990   19.8430   29.8240 C   0  0  0  0  0  0
   24.3760   19.9380   29.3490 C   0  0  0  0  0  0
   23.3960   19.1200   29.9190 C   0  0  0  0  0  0
   23.7380   18.2120   30.9420 C   0  0  0  0  0  0
   22.0840   19.1820   29.4450 C   0  0  0  0  0  0
   21.1230   18.3410   30.0120 C   0  0  0  0  0  0
   21.4620   17.4530   31.0280 C   0  0  0  0  0  0
   22.7660   17.3880   31.5070 C   0  0  0  0  0  0
   18.8980   16.4340   33.6230 C   0  0  0  0  0  0
   18.3720   17.2380   34.8140 C   0  0  0  0  0  0
   17.4980   19.4430   35.3470 C   0  0  0  0  0  0
   17.2790   20.8210   34.7160 C   0  0  0  0  0  0
   18.3950   22.9320   34.1210 C   0  0  0  0  0  0
   27.4970   18.6610   31.1470 C   0  0  0  0  0  0
   29.4500   19.5890   32.3200 C   0  0  0  0  0  0
   29.9630   20.8360   33.0600 C   0  0  0  0  0  0
   29.2130   22.5040   34.6530 C   0  0  0  0  0  0
   28.0750   22.7680   35.6550 C   0  0  0  0  0  0
   25.6040   23.2130   35.6960 C   0  0  0  0  0  0
   18.9905   24.9836   32.4527 H   0  0  0  0  0  0
   19.9030   18.1295   32.9851 H   0  0  0  0  0  0
   20.8906   17.0002   33.6445 H   0  0  0  0  0  0
   27.5798   20.4532   32.1713 H   0  0  0  0  0  0
   28.4179   20.4700   30.7626 H   0  0  0  0  0  0
   21.2389   25.8216   31.8636 H   0  0  0  0  0  0
   19.1016   21.0303   33.7551 H   0  0  0  0  0  0
   19.1512   21.4504   35.3388 H   0  0  0  0  0  0
   26.7801   22.8041   34.0434 H   0  0  0  0  0  0
   27.0531   24.2638   34.6581 H   0  0  0  0  0  0
   20.6077   22.7741   35.7360 H   0  0  0  0  0  0
   23.6982   25.5809   32.1010 H   0  0  0  0  0  0
   25.5782   24.6591   33.4908 H   0  0  0  0  0  0
   22.9121   22.8771   36.2420 H   0  0  0  0  0  0
   19.4952   16.6326   31.0739 H   0  0  0  0  0  0
   20.7468   15.5840   31.7618 H   0  0  0  0  0  0
   25.3234   17.3779   32.1259 H   0  0  0  0  0  0
   26.4470   20.5171   29.4336 H   0  0  0  0  0  0
   24.1346   20.6334   28.5587 H   0  0  0  0  0  0
   21.8276   19.8712   28.6540 H   0  0  0  0  0  0
   20.1018   18.3750   29.6623 H   0  0  0  0  0  0
   23.0300   16.7108   32.3058 H   0  0  0  0  0  0
   19.1912   15.4390   33.9577 H   0  0  0  0  0  0
   18.1184   16.3555   32.8652 H   0  0  0  0  0  0
   17.4125   16.8302   35.1319 H   0  0  0  0  0  0
   19.0941   17.1936   35.6293 H   0  0  0  0  0  0
   18.1004   19.5485   36.2493 H   0  0  0  0  0  0
   16.5329   18.9924   35.5788 H   0  0  0  0  0  0
   16.7650   20.7058   33.7617 H   0  0  0  0  0  0
   16.6634   21.4298   35.3782 H   0  0  0  0  0  0
   17.8695   22.9859   33.1676 H   0  0  0  0  0  0
   17.7464   23.4087   34.8560 H   0  0  0  0  0  0
   27.5577   17.9216   31.9456 H   0  0  0  0  0  0
   28.0186   18.2317   30.2916 H   0  0  0  0  0  0
   30.2093   19.2459   31.6172 H   0  0  0  0  0  0
   29.2501   18.7959   33.0405 H   0  0  0  0  0  0
   30.8402   20.5721   33.6508 H   0  0  0  0  0  0
   30.1965   21.6170   32.3363 H   0  0  0  0  0  0
   29.2773   23.3343   33.9497 H   0  0  0  0  0  0
   30.1517   22.3825   35.1936 H   0  0  0  0  0  0
   27.8058   21.8362   36.1524 H   0  0  0  0  0  0
   28.4032   23.5006   36.3924 H   0  0  0  0  0  0
   25.7265   23.7235   36.6512 H   0  0  0  0  0  0
   25.4082   22.1717   35.9519 H   0  0  0  0  0  0
  1  4  1  0  0  0
  1  7  2  0  0  0
  1 39  1  0  0  0
  2 17  1  0  0  0
  2 28  1  0  0  0
  2 40  1  0  0  0
  2 41  1  0  0  0
  3 29  1  0  0  0
  3 30  1  0  0  0
  4 12  2  0  0  0
  4 32  1  0  0  0
  5 33  1  0  0  0
  5 34  1  0  0  0
  5 42  1  0  0  0
  5 43  1  0  0  0
  6 35  1  0  0  0
  6 36  1  0  0  0
  7  9  1  0  0  0
  7 44  1  0  0  0
  8 31  1  0  0  0
  8 32  1  0  0  0
  8 45  1  0  0  0
  8 46  1  0  0  0
  9 11  1  0  0  0
  9 13  2  0  0  0
 10 37  1  0  0  0
 10 38  1  0  0  0
 10 47  1  0  0  0
 10 48  1  0  0  0
 11 12  1  0  0  0
 11 16  2  0  0  0
 12 49  1  0  0  0
 13 14  1  0  0  0
 13 50  1  0  0  0
 14 15  2  0  0  0
 14 51  1  0  0  0
 15 16  1  0  0  0
 15 38  1  0  0  0
 16 52  1  0  0  0
 17 26  1  0  0  0
 17 53  1  0  0  0
 17 54  1  0  0  0
 18 19  1  0  0  0
 18 23  2  0  0  0
 18 55  1  0  0  0
 19 20  2  0  0  0
 19 33  1  0  0  0
 20 21  1  0  0  0
 20 56  1  0  0  0
 21 22  2  0  0  0
 21 57  1  0  0  0
 22 23  1  0  0  0
 22 24  1  0  0  0
 23 27  1  0  0  0
 24 25  2  0  0  0
 24 58  1  0  0  0
 25 26  1  0  0  0
 25 59  1  0  0  0
 26 27  2  0  0  0
 27 60  1  0  0  0
 28 29  1  0  0  0
 28 61  1  0  0  0
 28 62  1  0  0  0
 29 63  1  0  0  0
 29 64  1  0  0  0
 30 31  1  0  0  0
 30 65  1  0  0  0
 30 66  1  0  0  0
 31 67  1  0  0  0
 31 68  1  0  0  0
 32 69  1  0  0  0
 32 70  1  0  0  0
 33 71  1  0  0  0
 33 72  1  0  0  0
 34 35  1  0  0  0
 34 73  1  0  0  0
 34 74  1  0  0  0
 35 75  1  0  0  0
 35 76  1  0  0  0
 36 37  1  0  0  0
 36 77  1  0  0  0
 36 78  1  0  0  0
 37 79  1  0  0  0
 37 80  1  0  0  0
 38 81  1  0  0  0
 38 82  1  0  0  0
M  CHG  4   2   1   5   1   8   1  10   1
M  END
> <i_pdb_PDB_Model>
1

> <s_pdb_PDB_format_version>
3.0

> <b_ppw_prepared>
1

> <s_ppw_prepared_with_version>
2021-1

> <s_ppw_het_states>
eJztltFqwzAMRX/F9DkUS0oad79S+gdlb3sq/fdZjq9iKIOxvazs9qG5UpwbWcoB3w9yeEuX+pMp5euULjol8av1eO7XpedPPV77tfT8uceSe0LgKAoBT4GpLBCwFfhKgYCzZoioFc4KZ4WzwlnhrHBWOCucDc4GZ4OzwdngbHA2OBucrTm78nbOaMSU6gJFc9eerlrL3mwvBtrQQ7fQ/mzVhuHUEryw0PM+HBsG5RVKHxbs6yt9l6F1n5/IoK2/1udpqLkFZRiw6Bic8IzXFtt3seDOsi0TBLub9yjuePY8BBrl1Kx/CBFEH1oWO3Ch6FwTscwD1NZsYyA1qyi0CZTjQmOGZRxWHtrpY4j2e++3vtUoH0vxYu+PKb1/3G7bf/tQvgNeJngEj+D9ADw52jmvBI/gEbxXAu+ro2YmeASP4BE8gkfw/gV4T0fNTPAIHsEjeASP4L0CePm34PGoSfAIHsEjeATvT4J3fXwC+/6CAA==

$$$$
