@<TRIPOS>MOLECULE
MOL
   63    65     1     0     0
SMALL
bcc


@<TRIPOS>ATOM
      1 C1           2.6380    14.8370    22.0020 c          1 MOL       0.662900
      2 O1           1.8070    13.9720    22.1880 o          1 MOL      -0.592100
      3 N1           2.6290    15.6410    20.9380 ns         1 MOL      -0.458100
      4 C2           1.7040    16.5570    20.5350 cc         1 MOL      -0.041400
      5 C3           2.0250    17.8990    20.1810 cc         1 MOL      -0.186000
      6 C4           0.8960    18.4390    19.5780 cd         1 MOL      -0.188900
      7 N2          -0.1630    17.6570    20.0590 na         1 MOL      -0.003100
      8 C5           0.3380    16.4840    20.4880 cd         1 MOL      -0.132300
      9 C6          -1.5940    17.9160    19.9900 c3         1 MOL       0.015600
     10 C7           0.6340    19.6810    18.8830 c          1 MOL       0.712700
     11 O2          -0.4630    20.2790    19.0010 o          1 MOL      -0.620100
     12 N3           1.4790    20.0040    17.9070 ns         1 MOL      -0.440100
     13 C8           1.4520    21.2290    17.1880 cc         1 MOL      -0.023400
     14 C9           2.4610    21.7190    16.3920 cc         1 MOL      -0.183000
     15 C10          2.0510    22.9360    15.9060 cd         1 MOL      -0.199900
     16 N4           0.7970    23.1500    16.3530 na         1 MOL      -0.002100
     17 C11          0.3420    21.9890    16.9360 cd         1 MOL      -0.126300
     18 C12          0.0040    24.3540    16.2650 c3         1 MOL       0.015600
     19 C13          2.7170    23.8960    14.9890 c          1 MOL       0.717700
     20 O3           2.1840    24.9600    14.6240 o          1 MOL      -0.621100
     21 N5           3.9890    23.6370    14.7180 ns         1 MOL      -0.446100
     22 C14          4.8160    24.5460    13.9710 cc         1 MOL      -0.009400
     23 C15          5.8770    24.1170    13.1430 cc         1 MOL      -0.167000
     24 C16          6.3890    25.2430    12.5060 cd         1 MOL      -0.229900
     25 N6           5.6980    26.3380    13.0410 na         1 MOL       0.002900
     26 C17          4.6920    25.8890    13.8130 cd         1 MOL      -0.108300
     27 C18          5.8980    27.7580    12.7790 c3         1 MOL       0.015600
     28 C19          7.6130    25.4610    11.7650 c          1 MOL       0.731700
     29 O4           8.0850    26.5670    11.5020 o          1 MOL      -0.690100
     30 N7           8.3980    24.3670    11.6500 ns         1 MOL      -0.578900
     31 C20          9.8440    24.5210    11.3630 c3         1 MOL       0.100000
     32 C21         10.1830    24.1960     9.9390 c3         1 MOL      -0.193700
     33 C22         11.6800    23.9520     9.7620 c2         1 MOL       0.445800
     34 N8          12.4670    24.9790     9.6230 nv         1 MOL      -0.468600
     35 N9          12.1880    22.7830    10.1260 nv         1 MOL      -0.452700
     36 H1           3.4340    14.9840    22.7170 h5         1 MOL       0.035200
     37 H2           3.3980    15.6210    20.2840 hn         1 MOL       0.318500
     38 H3           3.0050    18.2960    20.4010 ha         1 MOL       0.144000
     39 H4          -0.1640    15.5720    20.7750 h4         1 MOL       0.210000
     40 H5          -2.1350    17.0980    20.4650 h1         1 MOL       0.068367
     41 H6          -1.8200    18.8490    20.5070 h1         1 MOL       0.068367
     42 H7          -1.8990    17.9960    18.9470 h1         1 MOL       0.068367
     43 H8           2.2040    19.3570    17.6310 hn         1 MOL       0.323500
     44 H9           3.3670    21.1470    16.2560 ha         1 MOL       0.144000
     45 H10         -0.6380    21.6180    17.1990 h4         1 MOL       0.214000
     46 H11         -0.9680    24.1840    16.7280 h1         1 MOL       0.068700
     47 H12          0.5160    25.1650    16.7830 h1         1 MOL       0.068700
     48 H13         -0.1350    24.6220    15.2180 h1         1 MOL       0.068700
     49 H14          4.4090    22.7760    15.0390 hn         1 MOL       0.327500
     50 H15          6.1420    23.0710    13.1030 ha         1 MOL       0.149000
     51 H16          3.8720    26.4140    14.2810 h4         1 MOL       0.222000
     52 H17          5.1860    28.3400    13.3640 h1         1 MOL       0.068700
     53 H18          6.9130    28.0400    13.0580 h1         1 MOL       0.068700
     54 H19          5.7450    27.9570    11.7180 h1         1 MOL       0.068700
     55 H20          7.9990    23.4450    11.7600 hn         1 MOL       0.333500
     56 H21         10.4160    23.8750    12.0280 h1         1 MOL       0.079200
     57 H22         10.1500    25.5430    11.5840 h1         1 MOL       0.079200
     58 H23          9.8710    25.0180     9.2950 hc         1 MOL       0.107200
     59 H24          9.6320    23.3090     9.6280 hc         1 MOL       0.107200
     60 H25         13.4610    24.8410     9.5050 hn         1 MOL       0.331950
     61 H26         12.0840    25.9140     9.6340 hn         1 MOL       0.331950
     62 H27         13.1760    22.6050    10.0160 hn         1 MOL       0.331950
     63 H28         11.5870    22.0700    10.5140 hn         1 MOL       0.331950
@<TRIPOS>BOND
     1     1     2 2   
     2     1     3 1   
     3     1    36 1   
     4     3     4 1   
     5     3    37 1   
     6     4     5 1   
     7     4     8 2   
     8     5     6 2   
     9     5    38 1   
    10     6     7 1   
    11     6    10 1   
    12     7     8 1   
    13     7     9 1   
    14     8    39 1   
    15     9    40 1   
    16     9    41 1   
    17     9    42 1   
    18    10    11 2   
    19    10    12 1   
    20    12    13 1   
    21    12    43 1   
    22    13    14 1   
    23    13    17 2   
    24    14    15 2   
    25    14    44 1   
    26    15    16 1   
    27    15    19 1   
    28    16    17 1   
    29    16    18 1   
    30    17    45 1   
    31    18    46 1   
    32    18    47 1   
    33    18    48 1   
    34    19    20 2   
    35    19    21 1   
    36    21    22 1   
    37    21    49 1   
    38    22    23 1   
    39    22    26 2   
    40    23    24 2   
    41    23    50 1   
    42    24    25 1   
    43    24    28 1   
    44    25    26 1   
    45    25    27 1   
    46    26    51 1   
    47    27    52 1   
    48    27    53 1   
    49    27    54 1   
    50    28    29 2   
    51    28    30 1   
    52    30    31 1   
    53    30    55 1   
    54    31    32 1   
    55    31    56 1   
    56    31    57 1   
    57    32    33 1   
    58    32    58 1   
    59    32    59 1   
    60    33    34 2   
    61    33    35 1   
    62    34    60 1   
    63    34    61 1   
    64    35    62 1   
    65    35    63 1   
@<TRIPOS>SUBSTRUCTURE
     1 MOL         1 TEMP              0 ****  ****    0 ROOT
