
                    3D
 Schrodinger Suite 2021-1.
 63 65  0  0  1  0            999 V2000
    2.6380   14.8370   22.0020 C   0  0  0  0  0  0
    1.8070   13.9720   22.1880 O   0  0  0  0  0  0
    2.6290   15.6410   20.9380 N   0  0  0  0  0  0
    1.7040   16.5570   20.5350 C   0  0  0  0  0  0
    2.0250   17.8990   20.1810 C   0  0  0  0  0  0
    0.8960   18.4390   19.5780 C   0  0  0  0  0  0
   -0.1630   17.6570   20.0590 N   0  0  0  0  0  0
    0.3380   16.4840   20.4880 C   0  0  0  0  0  0
   -1.5940   17.9160   19.9900 C   0  0  0  0  0  0
    0.6340   19.6810   18.8830 C   0  0  0  0  0  0
   -0.4630   20.2790   19.0010 O   0  0  0  0  0  0
    1.4790   20.0040   17.9070 N   0  0  0  0  0  0
    1.4520   21.2290   17.1880 C   0  0  0  0  0  0
    2.4610   21.7190   16.3920 C   0  0  0  0  0  0
    2.0510   22.9360   15.9060 C   0  0  0  0  0  0
    0.7970   23.1500   16.3530 N   0  0  0  0  0  0
    0.3420   21.9890   16.9360 C   0  0  0  0  0  0
    0.0040   24.3540   16.2650 C   0  0  0  0  0  0
    2.7170   23.8960   14.9890 C   0  0  0  0  0  0
    2.1840   24.9600   14.6240 O   0  0  0  0  0  0
    3.9890   23.6370   14.7180 N   0  0  0  0  0  0
    4.8160   24.5460   13.9710 C   0  0  0  0  0  0
    5.8770   24.1170   13.1430 C   0  0  0  0  0  0
    6.3890   25.2430   12.5060 C   0  0  0  0  0  0
    5.6980   26.3380   13.0410 N   0  0  0  0  0  0
    4.6920   25.8890   13.8130 C   0  0  0  0  0  0
    5.8980   27.7580   12.7790 C   0  0  0  0  0  0
    7.6130   25.4610   11.7650 C   0  0  0  0  0  0
    8.0850   26.5670   11.5020 O   0  0  0  0  0  0
    8.3980   24.3670   11.6500 N   0  0  0  0  0  0
    9.8440   24.5210   11.3630 C   0  0  0  0  0  0
   10.1830   24.1960    9.9390 C   0  0  0  0  0  0
   11.6800   23.9520    9.7620 C   0  0  0  0  0  0
   12.4670   24.9790    9.6230 N   0  3  0  0  0  0
   12.1880   22.7830   10.1260 N   0  0  0  0  0  0
    3.4339   14.9839   22.7171 H   0  0  0  0  0  0
    3.3982   15.6214   20.2837 H   0  0  0  0  0  0
    3.0053   18.2956   20.4005 H   0  0  0  0  0  0
   -0.1642   15.5718   20.7746 H   0  0  0  0  0  0
   -2.1352   17.0975   20.4647 H   0  0  0  0  0  0
   -1.8203   18.8486   20.5069 H   0  0  0  0  0  0
   -1.8994   17.9961   18.9467 H   0  0  0  0  0  0
    2.2036   19.3565   17.6315 H   0  0  0  0  0  0
    3.3671   21.1473   16.2555 H   0  0  0  0  0  0
   -0.6376   21.6180   17.1991 H   0  0  0  0  0  0
   -0.9681   24.1841   16.7280 H   0  0  0  0  0  0
    0.5156   25.1653   16.7828 H   0  0  0  0  0  0
   -0.1349   24.6225   15.2178 H   0  0  0  0  0  0
    4.4087   22.7763   15.0393 H   0  0  0  0  0  0
    6.1420   23.0708   13.1034 H   0  0  0  0  0  0
    3.8724   26.4143   14.2806 H   0  0  0  0  0  0
    5.1858   28.3398   13.3641 H   0  0  0  0  0  0
    6.9132   28.0401   13.0583 H   0  0  0  0  0  0
    5.7448   27.9574   11.7184 H   0  0  0  0  0  0
    7.9993   23.4455   11.7596 H   0  0  0  0  0  0
   10.4163   23.8746   12.0283 H   0  0  0  0  0  0
   10.1504   25.5434   11.5842 H   0  0  0  0  0  0
    9.8709   25.0182    9.2951 H   0  0  0  0  0  0
    9.6316   23.3086    9.6283 H   0  0  0  0  0  0
   13.4606   24.8415    9.5046 H   0  0  0  0  0  0
   12.0843   25.9136    9.6336 H   0  0  0  0  0  0
   13.1761   22.6054   10.0156 H   0  0  0  0  0  0
   11.5869   22.0699   10.5137 H   0  0  0  0  0  0
  1  2  2  0  0  0
  1  3  1  0  0  0
  1 36  1  0  0  0
  3  4  1  0  0  0
  3 37  1  0  0  0
  4  5  1  0  0  0
  4  8  2  0  0  0
  5  6  2  0  0  0
  5 38  1  0  0  0
  6  7  1  0  0  0
  6 10  1  0  0  0
  7  8  1  0  0  0
  7  9  1  0  0  0
  8 39  1  0  0  0
  9 40  1  0  0  0
  9 41  1  0  0  0
  9 42  1  0  0  0
 10 11  2  0  0  0
 10 12  1  0  0  0
 12 13  1  0  0  0
 12 43  1  0  0  0
 13 14  1  0  0  0
 13 17  2  0  0  0
 14 15  2  0  0  0
 14 44  1  0  0  0
 15 16  1  0  0  0
 15 19  1  0  0  0
 16 17  1  0  0  0
 16 18  1  0  0  0
 17 45  1  0  0  0
 18 46  1  0  0  0
 18 47  1  0  0  0
 18 48  1  0  0  0
 19 20  2  0  0  0
 19 21  1  0  0  0
 21 22  1  0  0  0
 21 49  1  0  0  0
 22 23  1  0  0  0
 22 26  2  0  0  0
 23 24  2  0  0  0
 23 50  1  0  0  0
 24 25  1  0  0  0
 24 28  1  0  0  0
 25 26  1  0  0  0
 25 27  1  0  0  0
 26 51  1  0  0  0
 27 52  1  0  0  0
 27 53  1  0  0  0
 27 54  1  0  0  0
 28 29  2  0  0  0
 28 30  1  0  0  0
 30 31  1  0  0  0
 30 55  1  0  0  0
 31 32  1  0  0  0
 31 56  1  0  0  0
 31 57  1  0  0  0
 32 33  1  0  0  0
 32 58  1  0  0  0
 32 59  1  0  0  0
 33 34  2  0  0  0
 33 35  1  0  0  0
 34 60  1  0  0  0
 34 61  1  0  0  0
 35 62  1  0  0  0
 35 63  1  0  0  0
M  CHG  1  34   1
M  END
> <s_pdb_PDB_format_version>
3.0

> <b_ppw_prepared>
1

> <s_ppw_prepared_with_version>
2021-1

> <s_ppw_het_states>
eJxNk0uSgzAMRK/iYs1MWRLmM1dJcYNUdlmlcveRjB7AIuq2xXMjVz6DDH/l4Y+Mpe5jeWhWyzplbVnnrEvWNeuWVSoCooAUmAJUoApYgSuABbJC1jMrZIWskBWyQlbIClkhG2SDbOcYIJuTpYtODhUz8z7tKcdiNIyFXq/tkmv2+tKc0uuSDS5jdpLDXS+5pezbwoFhlJ0QnN/FdDcL78Rqw0SymbYw5znz8c5lCBMtcQ16GsmdEEqcEGp3w/fGatyRclnKfLrhnFjV+W6IEy1xb4oxZhbCiBPCiBPCzttxYSTopidw91N/HfEZbPG/xGGGyVy7rLWF2+6uNZx8x/J6P5/H775//wFQibEL

$$$$
