@<TRIPOS>MOLECULE
MOL
   43    47     1     0     0
SMALL
bcc


@<TRIPOS>ATOM
      1 C1          -0.0750     5.7070     0.9940 ca         1 MOL       0.038700
      2 C2          -1.4140     5.8940     0.6650 ca         1 MOL      -0.090000
      3 N1           0.2800     5.6480     2.2840 na         1 MOL       0.017900
      4 C3           0.8750     5.5840    -0.0130 ca         1 MOL      -0.108000
      5 C4          -2.3610     6.0660     1.6630 ca         1 MOL      -0.054300
      6 C5          -1.8190     5.9920    -0.6590 ca         1 MOL      -0.084000
      7 C6           1.6230     5.4490     2.6370 ca         1 MOL       0.059700
      8 C7          -0.7560     5.4180     3.3190 c3         1 MOL       0.000300
      9 C8           2.2100     5.3840     0.3100 ca         1 MOL       0.018000
     10 C9          -3.6690     6.3410     1.2770 ca         1 MOL      -0.112000
     11 C10         -1.9600     6.2990     2.9750 c3         1 MOL      -0.056100
     12 C11         -3.0810     6.2810    -0.9650 ca         1 MOL       0.066100
     13 C12          2.5860     5.3040     1.6450 ca         1 MOL      -0.109000
     14 C13          3.1350     5.1350    -0.6980 ca         1 MOL      -0.130000
     15 C14         -3.9920     6.4570    -0.0100 ca         1 MOL       0.108100
     16 O1          -3.6290     6.4670    -2.1940 os         1 MOL      -0.319900
     17 C15          3.9080     5.0190     1.9770 ca         1 MOL       0.164100
     18 C16          4.4540     4.8430    -0.3730 ca         1 MOL      -0.089000
     19 O2          -5.2030     6.7580    -0.5500 os         1 MOL      -0.312900
     20 C17         -5.0440     6.5170    -1.9560 c3         1 MOL       0.320200
     21 C18          4.8370     4.8190     0.9630 ca         1 MOL       0.071100
     22 O3           4.2750     4.8770     3.2800 os         1 MOL      -0.336900
     23 O4           6.1370     4.6790     1.3380 os         1 MOL      -0.325900
     24 C19          4.1820     6.1360     3.9500 c3         1 MOL       0.124700
     25 C20          6.9190     4.2710     0.2140 c3         1 MOL       0.106700
     26 H1           0.5750     5.6440    -1.0490 ha         1 MOL       0.185000
     27 H2          -1.1060     5.8330    -1.4550 ha         1 MOL       0.165000
     28 H3           1.9070     5.4090     3.6780 h4         1 MOL       0.213000
     29 H4          -0.3640     5.7050     4.2950 h1         1 MOL       0.095700
     30 H5          -1.0570     4.3700     3.3040 h1         1 MOL       0.095700
     31 H6          -4.4380     6.4630     2.0250 ha         1 MOL       0.176000
     32 H7          -2.7830     6.0700     3.6520 hc         1 MOL       0.092700
     33 H8          -1.6870     7.3480     3.0900 hc         1 MOL       0.092700
     34 H9           2.8280     5.1690    -1.7330 ha         1 MOL       0.167000
     35 H10          5.1700     4.6380    -1.1550 ha         1 MOL       0.169000
     36 H11         -5.4880     5.5550    -2.2110 h2         1 MOL       0.094700
     37 H12         -5.4760     7.3460    -2.5170 h2         1 MOL       0.094700
     38 H13          4.4770     6.0160     4.9920 h1         1 MOL       0.068367
     39 H14          4.8430     6.8550     3.4660 h1         1 MOL       0.068367
     40 H15          3.1550     6.4980     3.9030 h1         1 MOL       0.068367
     41 H16          7.9600     4.1590     0.5160 h1         1 MOL       0.062033
     42 H17          6.5460     3.3180    -0.1620 h1         1 MOL       0.062033
     43 H18          6.8480     5.0240    -0.5710 h1         1 MOL       0.062033
@<TRIPOS>BOND
     1     1     2 1   
     2     1     3 1   
     3     1     4 ar  
     4     2     5 ar  
     5     2     6 ar  
     6     3     7 2   
     7     3     8 1   
     8     4     9 ar  
     9     4    26 1   
    10     5    10 ar  
    11     5    11 1   
    12     6    12 ar  
    13     6    27 1   
    14     7    13 ar  
    15     7    28 1   
    16     8    11 1   
    17     8    29 1   
    18     8    30 1   
    19     9    13 ar  
    20     9    14 ar  
    21    10    15 ar  
    22    10    31 1   
    23    11    32 1   
    24    11    33 1   
    25    12    15 ar  
    26    12    16 1   
    27    13    17 ar  
    28    14    18 ar  
    29    14    34 1   
    30    15    19 1   
    31    16    20 1   
    32    17    21 ar  
    33    17    22 1   
    34    18    21 ar  
    35    18    35 1   
    36    19    20 1   
    37    20    36 1   
    38    20    37 1   
    39    21    23 1   
    40    22    24 1   
    41    23    25 1   
    42    24    38 1   
    43    24    39 1   
    44    24    40 1   
    45    25    41 1   
    46    25    42 1   
    47    25    43 1   
@<TRIPOS>SUBSTRUCTURE
     1 MOL         1 TEMP              0 ****  ****    0 ROOT
