
                    3D
 Schrodinger Suite 2021-1.
 43 47  0  0  1  0            999 V2000
   -0.0750    5.7070    0.9940 C   0  0  0  0  0  0
   -1.4140    5.8940    0.6650 C   0  0  0  0  0  0
    0.2800    5.6480    2.2840 N   0  0  0  0  0  0
    0.8750    5.5840   -0.0130 C   0  0  0  0  0  0
   -2.3610    6.0660    1.6630 C   0  0  0  0  0  0
   -1.8190    5.9920   -0.6590 C   0  0  0  0  0  0
    1.6230    5.4490    2.6370 C   0  0  0  0  0  0
   -0.7560    5.4180    3.3190 C   0  0  0  0  0  0
    2.2100    5.3840    0.3100 C   0  0  0  0  0  0
   -3.6690    6.3410    1.2770 C   0  0  0  0  0  0
   -1.9600    6.2990    2.9750 C   0  0  0  0  0  0
   -3.0810    6.2810   -0.9650 C   0  0  0  0  0  0
    2.5860    5.3040    1.6450 C   0  0  0  0  0  0
    3.1350    5.1350   -0.6980 C   0  0  0  0  0  0
   -3.9920    6.4570   -0.0100 C   0  0  0  0  0  0
   -3.6290    6.4670   -2.1940 O   0  0  0  0  0  0
    3.9080    5.0190    1.9770 C   0  0  0  0  0  0
    4.4540    4.8430   -0.3730 C   0  0  0  0  0  0
   -5.2030    6.7580   -0.5500 O   0  0  0  0  0  0
   -5.0440    6.5170   -1.9560 C   0  0  0  0  0  0
    4.8370    4.8190    0.9630 C   0  0  0  0  0  0
    4.2750    4.8770    3.2800 O   0  0  0  0  0  0
    6.1370    4.6790    1.3380 O   0  0  0  0  0  0
    4.1820    6.1360    3.9500 C   0  0  0  0  0  0
    6.9190    4.2710    0.2140 C   0  0  0  0  0  0
    0.5749    5.6440   -1.0487 H   0  0  0  0  0  0
   -1.1064    5.8330   -1.4548 H   0  0  0  0  0  0
    1.9074    5.4086    3.6781 H   0  0  0  0  0  0
   -0.3638    5.7045    4.2948 H   0  0  0  0  0  0
   -1.0570    4.3705    3.3045 H   0  0  0  0  0  0
   -4.4384    6.4634    2.0250 H   0  0  0  0  0  0
   -2.7828    6.0699    3.6522 H   0  0  0  0  0  0
   -1.6871    7.3480    3.0904 H   0  0  0  0  0  0
    2.8281    5.1686   -1.7329 H   0  0  0  0  0  0
    5.1700    4.6376   -1.1550 H   0  0  0  0  0  0
   -5.4883    5.5549   -2.2110 H   0  0  0  0  0  0
   -5.4764    7.3457   -2.5166 H   0  0  0  0  0  0
    4.4770    6.0161    4.9925 H   0  0  0  0  0  0
    4.8430    6.8552    3.4664 H   0  0  0  0  0  0
    3.1550    6.4983    3.9029 H   0  0  0  0  0  0
    7.9602    4.1594    0.5164 H   0  0  0  0  0  0
    6.5462    3.3182   -0.1620 H   0  0  0  0  0  0
    6.8479    5.0237   -0.5712 H   0  0  0  0  0  0
  1  2  1  0  0  0
  1  3  2  0  0  0
  1  4  1  0  0  0
  2  5  2  0  0  0
  2  6  1  0  0  0
  3  7  1  0  0  0
  3  8  1  0  0  0
  4  9  2  0  0  0
  4 26  1  0  0  0
  5 10  1  0  0  0
  5 11  1  0  0  0
  6 12  2  0  0  0
  6 27  1  0  0  0
  7 13  2  0  0  0
  7 28  1  0  0  0
  8 11  1  0  0  0
  8 29  1  0  0  0
  8 30  1  0  0  0
  9 13  1  0  0  0
  9 14  1  0  0  0
 10 15  2  0  0  0
 10 31  1  0  0  0
 11 32  1  0  0  0
 11 33  1  0  0  0
 12 15  1  0  0  0
 12 16  1  0  0  0
 13 17  1  0  0  0
 14 18  2  0  0  0
 14 34  1  0  0  0
 15 19  1  0  0  0
 16 20  1  0  0  0
 17 21  2  0  0  0
 17 22  1  0  0  0
 18 21  1  0  0  0
 18 35  1  0  0  0
 19 20  1  0  0  0
 20 36  1  0  0  0
 20 37  1  0  0  0
 21 23  1  0  0  0
 22 24  1  0  0  0
 23 25  1  0  0  0
 24 38  1  0  0  0
 24 39  1  0  0  0
 24 40  1  0  0  0
 25 41  1  0  0  0
 25 42  1  0  0  0
 25 43  1  0  0  0
M  END
> <i_pdb_PDB_Model>
1

> <s_pdb_PDB_format_version>
3.0

> <b_ppw_prepared>
1

> <s_ppw_prepared_with_version>
2021-1

> <s_ppw_het_states>
eJxNkMESgjAMRH+lw7k6bARs/RWGP2C8eWL4d5OyW/VgNunmse0xYHil1X/IadxyWo31wTqxzqwL65O1sFZWjBIiQkiICUEhKoSFuBAYIpvI1rOKbCKbyNbIoeJm7kNj5eROo5w49dOZU5cLp258/mSh9J1Kr+/EZSEN6gAYPUHQF8ufp17zrhWlARUmKNGgN8rWdpWuLRfthL/qxP2miOGPl7Pe9Fcp1wn03H2n+ZUz/NbfLG7Vsnl3G+++cZw5vT/7fv1v2/kFGZ5/Mg==

$$$$
