@<TRIPOS>MOLECULE
MOL
   63    67     1     0     0
SMALL
bcc


@<TRIPOS>ATOM
      1 C1           9.5750    19.3500    14.1550 c3         1 MOL       0.490500
      2 N1           8.8340    18.4010    14.6000 n7         1 MOL      -0.820200
      3 N2          10.7520    19.5120    14.6080 nz         1 MOL      -0.919100
      4 C2           8.1440    18.2910    15.6990 c3         1 MOL       0.208900
      5 C3           8.7960    18.5690    17.0030 c2         1 MOL      -0.242200
      6 C4           8.6790    17.2980    17.8040 ce         1 MOL      -0.119500
      7 C5           8.1490    16.2420    16.9410 ce         1 MOL      -0.119500
      8 C6           8.0350    16.7850    15.5770 c2         1 MOL      -0.242200
      9 C7           8.1740    21.8230    10.9970 ca         1 MOL      -0.074500
     10 C8           7.2750    21.3990    11.9860 ca         1 MOL      -0.102000
     11 C9           7.7320    20.5670    13.0520 ca         1 MOL      -0.098000
     12 C10          9.0780    20.1870    13.0970 ca         1 MOL      -0.175300
     13 C11          9.9730    20.6010    12.1220 ca         1 MOL      -0.098000
     14 C12          9.5180    21.4240    11.0630 ca         1 MOL      -0.102000
     15 C13          7.7830    22.6710     9.9200 cc         1 MOL       0.290700
     16 O1           8.7840    23.0240     9.0140 os         1 MOL      -0.355800
     17 C14          6.5690    23.2380     9.5870 cd         1 MOL      -0.207800
     18 C15          6.8110    23.9890     8.3930 cd         1 MOL      -0.207800
     19 C16          8.1370    23.7950     8.0940 cc         1 MOL       0.290700
     20 C17          8.9450    24.2120     7.0090 ca         1 MOL      -0.074500
     21 C18          8.3970    24.9820     5.9630 ca         1 MOL      -0.102000
     22 C19          9.1920    25.3600     4.8780 ca         1 MOL      -0.098000
     23 C20         10.5430    24.9460     4.8490 ca         1 MOL      -0.175300
     24 C21         11.0520    24.1810     5.9050 ca         1 MOL      -0.098000
     25 C22         10.2630    23.8070     6.9910 ca         1 MOL      -0.102000
     26 C23         11.4680    25.2810     3.7070 c3         1 MOL       0.490500
     27 N3          11.6000    26.4910     3.1020 n7         1 MOL      -0.820200
     28 N4          12.1930    24.2760     3.2020 nz         1 MOL      -0.919100
     29 C24         12.5980    26.7440     2.2300 c3         1 MOL       0.208900
     30 C25         13.4260    27.9390     2.5760 c2         1 MOL      -0.242200
     31 C26         13.4100    28.9950     1.5070 ce         1 MOL      -0.119500
     32 C27         12.2700    28.6500     0.5850 ce         1 MOL      -0.119500
     33 C28         11.9360    27.2030     0.9350 c2         1 MOL      -0.242200
     34 H1           9.1760    20.0340    14.9040 hx         1 MOL       0.120700
     35 H2           8.0800    18.2290    13.9500 hn         1 MOL       0.427300
     36 H3          11.1850    20.2990    14.1470 hn         1 MOL       0.446633
     37 H4          10.7100    19.6860    15.6020 hn         1 MOL       0.446633
     38 H5          11.2970    18.6800    14.4350 hn         1 MOL       0.446633
     39 H6           7.1720    18.7770    15.6190 h1         1 MOL       0.137700
     40 H7           9.2860    19.4320    17.4280 ha         1 MOL       0.167500
     41 H8           8.9700    17.2860    18.8440 ha         1 MOL       0.176250
     42 H9           7.9200    15.2710    17.3550 ha         1 MOL       0.176250
     43 H10          7.9010    16.1170    14.7390 ha         1 MOL       0.167500
     44 H11          6.2390    21.7020    11.9400 ha         1 MOL       0.164000
     45 H12          7.0410    20.2370    13.8140 ha         1 MOL       0.143250
     46 H13         11.0080    20.2960    12.1740 ha         1 MOL       0.143250
     47 H14         10.2140    21.7450    10.3020 ha         1 MOL       0.164000
     48 H15          5.7010    23.0570    10.2040 ha         1 MOL       0.179500
     49 H16          6.0080    24.5480     7.9340 ha         1 MOL       0.179500
     50 H17          7.3600    25.2810     5.9990 ha         1 MOL       0.164000
     51 H18          8.7710    25.9570     4.0820 ha         1 MOL       0.143250
     52 H19         12.0840    23.8630     5.8930 ha         1 MOL       0.143250
     53 H20         10.6580    23.2160     7.8040 ha         1 MOL       0.164000
     54 H21         12.2670    25.5260     4.4060 hx         1 MOL       0.120700
     55 H22         10.7700    26.6900     2.5620 hn         1 MOL       0.427300
     56 H23         12.7700    24.6220     2.4480 hn         1 MOL       0.446633
     57 H24         12.7820    23.8890     3.9250 hn         1 MOL       0.446633
     58 H25         11.5750    23.5580     2.8510 hn         1 MOL       0.446633
     59 H26         13.2190    25.8630     2.0690 h1         1 MOL       0.137700
     60 H27         13.9990    28.0930     3.4780 ha         1 MOL       0.167500
     61 H28         14.1390    29.7910     1.5240 ha         1 MOL       0.176250
     62 H29         11.8950    29.3870    -0.1100 ha         1 MOL       0.176250
     63 H30         11.2920    26.6260     0.2880 ha         1 MOL       0.167500
@<TRIPOS>BOND
     1     1     2 1   
     2     1     3 1   
     3     1    12 1   
     4     1    34 1   
     5     2     4 1   
     6     2    35 1   
     7     3    36 1   
     8     3    37 1   
     9     3    38 1   
    10     4     5 1   
    11     4     8 1   
    12     4    39 1   
    13     5     6 2   
    14     5    40 1   
    15     6     7 1   
    16     6    41 1   
    17     7     8 2   
    18     7    42 1   
    19     8    43 1   
    20     9    10 ar  
    21     9    14 ar  
    22     9    15 1   
    23    10    11 ar  
    24    10    44 1   
    25    11    12 ar  
    26    11    45 1   
    27    12    13 ar  
    28    13    14 ar  
    29    13    46 1   
    30    14    47 1   
    31    15    16 1   
    32    15    17 2   
    33    16    19 1   
    34    17    18 1   
    35    17    48 1   
    36    18    19 2   
    37    18    49 1   
    38    19    20 1   
    39    20    21 ar  
    40    20    25 ar  
    41    21    22 ar  
    42    21    50 1   
    43    22    23 ar  
    44    22    51 1   
    45    23    24 ar  
    46    23    26 1   
    47    24    25 ar  
    48    24    52 1   
    49    25    53 1   
    50    26    27 1   
    51    26    28 1   
    52    26    54 1   
    53    27    29 1   
    54    27    55 1   
    55    28    56 1   
    56    28    57 1   
    57    28    58 1   
    58    29    30 1   
    59    29    33 1   
    60    29    59 1   
    61    30    31 2   
    62    30    60 1   
    63    31    32 1   
    64    31    61 1   
    65    32    33 2   
    66    32    62 1   
    67    33    63 1   
@<TRIPOS>SUBSTRUCTURE
     1 MOL         1 TEMP              0 ****  ****    0 ROOT
