
                    3D
 Schrodinger Suite 2021-1.
 63 67  0  0  1  0            999 V2000
    9.5750   19.3500   14.1550 C   0  0  1  0  0  0
    8.8340   18.4010   14.6000 N   0  0  1  0  0  0
   10.7520   19.5120   14.6080 N   0  3  0  0  0  0
    8.1440   18.2910   15.6990 C   0  0  0  0  0  0
    8.7960   18.5690   17.0030 C   0  0  0  0  0  0
    8.6790   17.2980   17.8040 C   0  0  0  0  0  0
    8.1490   16.2420   16.9410 C   0  0  0  0  0  0
    8.0350   16.7850   15.5770 C   0  0  0  0  0  0
    8.1740   21.8230   10.9970 C   0  0  0  0  0  0
    7.2750   21.3990   11.9860 C   0  0  0  0  0  0
    7.7320   20.5670   13.0520 C   0  0  0  0  0  0
    9.0780   20.1870   13.0970 C   0  0  0  0  0  0
    9.9730   20.6010   12.1220 C   0  0  0  0  0  0
    9.5180   21.4240   11.0630 C   0  0  0  0  0  0
    7.7830   22.6710    9.9200 C   0  0  0  0  0  0
    8.7840   23.0240    9.0140 O   0  0  0  0  0  0
    6.5690   23.2380    9.5870 C   0  0  0  0  0  0
    6.8110   23.9890    8.3930 C   0  0  0  0  0  0
    8.1370   23.7950    8.0940 C   0  0  0  0  0  0
    8.9450   24.2120    7.0090 C   0  0  0  0  0  0
    8.3970   24.9820    5.9630 C   0  0  0  0  0  0
    9.1920   25.3600    4.8780 C   0  0  0  0  0  0
   10.5430   24.9460    4.8490 C   0  0  0  0  0  0
   11.0520   24.1810    5.9050 C   0  0  0  0  0  0
   10.2630   23.8070    6.9910 C   0  0  0  0  0  0
   11.4680   25.2810    3.7070 C   0  0  2  0  0  0
   11.6000   26.4910    3.1020 N   0  0  1  0  0  0
   12.1930   24.2760    3.2020 N   0  3  0  0  0  0
   12.5980   26.7440    2.2300 C   0  0  0  0  0  0
   13.4260   27.9390    2.5760 C   0  0  0  0  0  0
   13.4100   28.9950    1.5070 C   0  0  0  0  0  0
   12.2700   28.6500    0.5850 C   0  0  0  0  0  0
   11.9360   27.2030    0.9350 C   0  0  0  0  0  0
    9.1759   20.0337   14.9042 H   0  0  0  0  0  0
    8.0802   18.2288   13.9502 H   0  0  0  0  0  0
   11.1852   20.2995   14.1472 H   0  0  0  0  0  0
   10.7097   19.6857   15.6021 H   0  0  0  0  0  0
   11.2973   18.6797   14.4351 H   0  0  0  0  0  0
    7.1716   18.7768   15.6189 H   0  0  0  0  0  0
    9.2860   19.4323   17.4285 H   0  0  0  0  0  0
    8.9703   17.2863   18.8439 H   0  0  0  0  0  0
    7.9197   15.2710   17.3545 H   0  0  0  0  0  0
    7.9013   16.1167   14.7392 H   0  0  0  0  0  0
    6.2394   21.7020   11.9401 H   0  0  0  0  0  0
    7.0411   20.2370   13.8137 H   0  0  0  0  0  0
   11.0076   20.2957   12.1741 H   0  0  0  0  0  0
   10.2145   21.7447   10.3024 H   0  0  0  0  0  0
    5.7012   23.0572   10.2040 H   0  0  0  0  0  0
    6.0085   24.5477    7.9345 H   0  0  0  0  0  0
    7.3599   25.2814    5.9989 H   0  0  0  0  0  0
    8.7714   25.9572    4.0825 H   0  0  0  0  0  0
   12.0841   23.8632    5.8931 H   0  0  0  0  0  0
   10.6576   23.2163    7.8045 H   0  0  0  0  0  0
   12.2673   25.5264    4.4063 H   0  0  0  0  0  0
   10.7702   26.6901    2.5617 H   0  0  0  0  0  0
   12.7695   24.6217    2.4482 H   0  0  0  0  0  0
   12.7821   23.8886    3.9252 H   0  0  0  0  0  0
   11.5755   23.5580    2.8509 H   0  0  0  0  0  0
   13.2188   25.8627    2.0690 H   0  0  0  0  0  0
   13.9991   28.0928    3.4784 H   0  0  0  0  0  0
   14.1393   29.7914    1.5237 H   0  0  0  0  0  0
   11.8954   29.3871   -0.1098 H   0  0  0  0  0  0
   11.2924   26.6256    0.2878 H   0  0  0  0  0  0
  1  2  1  0  0  0
  1  3  1  0  0  0
  1 12  1  0  0  0
  1 34  1  0  0  0
  2  4  1  0  0  0
  2 35  1  0  0  0
  3 36  1  0  0  0
  3 37  1  0  0  0
  3 38  1  0  0  0
  4  5  1  0  0  0
  4  8  1  0  0  0
  4 39  1  0  0  0
  5  6  2  0  0  0
  5 40  1  0  0  0
  6  7  1  0  0  0
  6 41  1  0  0  0
  7  8  2  0  0  0
  7 42  1  0  0  0
  8 43  1  0  0  0
  9 10  2  0  0  0
  9 14  1  0  0  0
  9 15  1  0  0  0
 10 11  1  0  0  0
 10 44  1  0  0  0
 11 12  2  0  0  0
 11 45  1  0  0  0
 12 13  1  0  0  0
 13 14  2  0  0  0
 13 46  1  0  0  0
 14 47  1  0  0  0
 15 16  1  0  0  0
 15 17  2  0  0  0
 16 19  1  0  0  0
 17 18  1  0  0  0
 17 48  1  0  0  0
 18 19  2  0  0  0
 18 49  1  0  0  0
 19 20  1  0  0  0
 20 21  2  0  0  0
 20 25  1  0  0  0
 21 22  1  0  0  0
 21 50  1  0  0  0
 22 23  2  0  0  0
 22 51  1  0  0  0
 23 24  1  0  0  0
 23 26  1  0  0  0
 24 25  2  0  0  0
 24 52  1  0  0  0
 25 53  1  0  0  0
 26 27  1  0  0  0
 26 28  1  0  0  0
 26 54  1  0  0  0
 27 29  1  0  0  0
 27 55  1  0  0  0
 28 56  1  0  0  0
 28 57  1  0  0  0
 28 58  1  0  0  0
 29 30  1  0  0  0
 29 33  1  0  0  0
 29 59  1  0  0  0
 30 31  2  0  0  0
 30 60  1  0  0  0
 31 32  1  0  0  0
 31 61  1  0  0  0
 32 33  2  0  0  0
 32 62  1  0  0  0
 33 63  1  0  0  0
M  CHG  2   3   1  28   1
M  END
> <s_pdb_PDB_format_version>
3.0

> <b_ppw_prepared>
1

> <s_ppw_prepared_with_version>
2021-1

> <s_ppw_het_states>
eJztl82OwjAMhF+l4lyh2KZ/vAriDdDe9oR4dzLBk+5tpT1uhwMep+l04uoT4nmy03W41Y+NQ7mPw82zxjgY6iX7Keucdcm6Zt2yWqGgo9HSgoKmRlejrdHXaGx0djp7z0pnp7PT2ensdHY6+5pHczoHnYPO0cfQnKEwIc87q4xdGpdrvexjm3bJJ9alGsdzjkuuLm2D5xQxwK5pB00/bMBwjVPG852Tth4sPvc7B40ZW28WXsHqxiuIxLBNbNwGUXhORLS80hpma6t9HMgV3AbB47SGcbAKA+frcg6mNf1tITGDQkT52fDYWA1mgwjGgYgWp3blvM6lNs/XOHx9Px6f7/aehYJQEApCQSgIBaEgFITCIVEwolCEwrFR8PO8xfQrCpYolH+Hgn4VhIJQEApCQSgIBaHwRxT0X0EoCAWhIBSOjML99QbRk1hE

$$$$
