
                    3D
 Schrodinger Suite 2021-1.
 86 92  0  0  1  0            999 V2000
   39.2690   34.5000   36.4410 C   0  0  0  0  0  0
   37.4210   36.3760   40.2330 C   0  0  0  0  0  0
   40.7960   33.9240   35.0400 C   0  0  0  0  0  0
   41.7070   33.1870   34.1900 C   0  0  0  0  0  0
   38.2700   35.3090   40.9420 C   0  0  0  0  0  0
   38.3060   34.3600   37.5990 C   0  0  2  0  0  0
   41.0370   35.1860   35.5120 C   0  0  0  0  0  0
   38.3590   33.9410   40.2190 C   0  0  0  0  0  0
   42.5690   31.4880   33.2710 C   0  0  0  0  0  0
   42.8320   30.1340   32.8230 C   0  0  0  0  0  0
   44.3870   24.2220   35.0490 C   0  0  0  0  0  0
   43.4590   32.5230   33.2360 C   0  0  0  0  0  0
   42.9520   23.6760   34.9680 C   0  0  0  0  0  0
   42.5770   28.0150   32.5730 C   0  0  0  0  0  0
   41.9530   24.6530   35.6310 C   0  0  0  0  0  0
   43.7780   28.4100   32.0590 C   0  0  0  0  0  0
   42.2060   26.5960   32.6140 C   0  0  0  0  0  0
   39.1360   33.9860   38.8610 C   0  0  0  0  0  0
   36.0620   33.2060   37.6670 C   0  0  0  0  0  0
   35.4520   31.9900   37.1210 C   0  0  0  0  0  0
   34.2000   31.5630   37.4430 C   0  0  0  0  0  0
   40.5350   24.5990   35.0170 C   0  0  0  0  0  0
   35.0750   30.1330   36.1860 C   0  0  0  0  0  0
   35.3250   28.9190   35.4600 C   0  0  0  0  0  0
   42.2240   36.0650   35.2400 C   0  0  0  0  0  0
   34.3700   27.9530   35.3850 C   0  0  0  0  0  0
   44.9190   32.4680   32.8990 C   0  0  0  0  0  0
   36.0840   27.2470   34.4060 C   0  0  0  0  0  0
   37.0640   26.3410   33.8700 C   0  0  0  0  0  0
   40.3780   25.1490   33.5640 C   0  0  1  0  0  0
   36.8240   25.0330   33.5870 C   0  0  0  0  0  0
   38.9000   25.4310   33.3890 C   0  0  0  0  0  0
   35.9690   36.0100   40.0810 N   0  3  0  0  0  0
   44.5060   25.4670   34.2140 N   0  3  0  0  0  0
   39.6190   33.4810   35.6220 N   0  0  0  0  0  0
   41.1020   26.4140   33.3460 N   0  0  0  0  0  0
   41.4010   31.9060   33.8870 N   0  0  0  0  0  0
   36.4590   28.4810   34.8040 N   0  0  0  0  0  0
   41.9420   29.1520   33.0670 N   0  0  0  0  0  0
   36.0460   31.0610   36.2780 N   0  0  0  0  0  0
   37.3390   33.3020   37.2770 N   0  0  0  0  0  0
   38.4010   26.6290   33.7530 N   0  0  0  0  0  0
   43.9920   29.7480   32.2000 O   0  0  0  0  0  0
   33.9090   30.3590   36.8770 O   0  0  0  0  0  0
   42.9430   33.6560   33.7890 O   0  0  0  0  0  0
   40.0930   35.6030   36.3960 O   0  0  0  0  0  0
   34.8000   26.8540   34.7030 O   0  0  0  0  0  0
   37.9910   24.3910   33.2670 O   0  0  0  0  0  0
   35.5480   34.0130   38.4130 O   0  0  0  0  0  0
   42.8560   25.6610   32.1900 O   0  0  0  0  0  0
   37.8463   36.5820   39.2508 H   0  0  0  0  0  0
   37.5011   37.3192   40.7735 H   0  0  0  0  0  0
   37.8891   35.1584   41.9521 H   0  0  0  0  0  0
   39.2757   35.6974   41.1030 H   0  0  0  0  0  0
   37.7840   35.3026   37.7638 H   0  0  0  0  0  0
   37.3535   33.5569   40.0474 H   0  0  0  0  0  0
   38.8288   33.2128   40.8801 H   0  0  0  0  0  0
   45.0833   23.4691   34.6796 H   0  0  0  0  0  0
   44.6285   24.4558   36.0859 H   0  0  0  0  0  0
   42.9024   22.7099   35.4703 H   0  0  0  0  0  0
   42.6777   23.5300   33.9232 H   0  0  0  0  0  0
   42.3397   25.6696   35.5594 H   0  0  0  0  0  0
   41.8933   24.4402   36.6984 H   0  0  0  0  0  0
   44.4359   27.6840   31.6045 H   0  0  0  0  0  0
   39.9790   34.6709   38.9522 H   0  0  0  0  0  0
   39.6272   33.0270   38.6964 H   0  0  0  0  0  0
   33.5706   32.1670   38.0798 H   0  0  0  0  0  0
   39.8391   25.1197   35.6748 H   0  0  0  0  0  0
   40.1667   23.5738   35.0543 H   0  0  0  0  0  0
   42.1057   37.0103   35.7697 H   0  0  0  0  0  0
   43.1312   35.5678   35.5833 H   0  0  0  0  0  0
   42.2978   36.2558   34.1694 H   0  0  0  0  0  0
   33.4035   28.1127   35.8398 H   0  0  0  0  0  0
   45.3451   33.4692   32.9629 H   0  0  0  0  0  0
   45.4302   31.8105   33.6022 H   0  0  0  0  0  0
   45.0445   32.0842   31.8866 H   0  0  0  0  0  0
   40.7050   24.4005   32.8423 H   0  0  0  0  0  0
   35.8169   24.6461   33.6352 H   0  0  0  0  0  0
   35.4806   36.7572   39.6085 H   0  0  0  0  0  0
   35.8902   35.1614   39.5390 H   0  0  0  0  0  0
   35.5605   35.8654   40.9933 H   0  0  0  0  0  0
   45.4500   25.8218   34.2703 H   0  0  0  0  0  0
   44.2851   25.2505   33.2525 H   0  0  0  0  0  0
   43.8630   26.1661   34.5575 H   0  0  0  0  0  0
   40.6774   27.1967   33.8226 H   0  0  0  0  0  0
   37.7420   32.5878   36.6875 H   0  0  0  0  0  0
  1  6  1  0  0  0
  1 35  2  0  0  0
  1 46  1  0  0  0
  2  5  1  0  0  0
  2 33  1  0  0  0
  2 51  1  0  0  0
  2 52  1  0  0  0
  3  4  1  0  0  0
  3  7  2  0  0  0
  3 35  1  0  0  0
  4 37  2  0  0  0
  4 45  1  0  0  0
  5  8  1  0  0  0
  5 53  1  0  0  0
  5 54  1  0  0  0
  6 18  1  0  0  0
  6 41  1  0  0  0
  6 55  1  0  0  0
  7 25  1  0  0  0
  7 46  1  0  0  0
  8 18  1  0  0  0
  8 56  1  0  0  0
  8 57  1  0  0  0
  9 10  1  0  0  0
  9 12  2  0  0  0
  9 37  1  0  0  0
 10 39  2  0  0  0
 10 43  1  0  0  0
 11 13  1  0  0  0
 11 34  1  0  0  0
 11 58  1  0  0  0
 11 59  1  0  0  0
 12 27  1  0  0  0
 12 45  1  0  0  0
 13 15  1  0  0  0
 13 60  1  0  0  0
 13 61  1  0  0  0
 14 16  2  0  0  0
 14 17  1  0  0  0
 14 39  1  0  0  0
 15 22  1  0  0  0
 15 62  1  0  0  0
 15 63  1  0  0  0
 16 43  1  0  0  0
 16 64  1  0  0  0
 17 36  1  0  0  0
 17 50  2  0  0  0
 18 65  1  0  0  0
 18 66  1  0  0  0
 19 20  1  0  0  0
 19 41  1  0  0  0
 19 49  2  0  0  0
 20 21  2  0  0  0
 20 40  1  0  0  0
 21 44  1  0  0  0
 21 67  1  0  0  0
 22 30  1  0  0  0
 22 68  1  0  0  0
 22 69  1  0  0  0
 23 24  1  0  0  0
 23 40  2  0  0  0
 23 44  1  0  0  0
 24 26  2  0  0  0
 24 38  1  0  0  0
 25 70  1  0  0  0
 25 71  1  0  0  0
 25 72  1  0  0  0
 26 47  1  0  0  0
 26 73  1  0  0  0
 27 74  1  0  0  0
 27 75  1  0  0  0
 27 76  1  0  0  0
 28 29  1  0  0  0
 28 38  2  0  0  0
 28 47  1  0  0  0
 29 31  2  0  0  0
 29 42  1  0  0  0
 30 32  1  0  0  0
 30 36  1  0  0  0
 30 77  1  0  0  0
 31 48  1  0  0  0
 31 78  1  0  0  0
 32 42  2  0  0  0
 32 48  1  0  0  0
 33 79  1  0  0  0
 33 80  1  0  0  0
 33 81  1  0  0  0
 34 82  1  0  0  0
 34 83  1  0  0  0
 34 84  1  0  0  0
 36 85  1  0  0  0
 41 86  1  0  0  0
M  CHG  2  33   1  34   1
M  END
> <i_pdb_PDB_Model>
1

> <s_pdb_PDB_format_version>
3.0

> <b_ppw_prepared>
1

> <s_ppw_prepared_with_version>
2021-1

> <s_ppw_het_states>
eJztlEluwzAMRa8SeB0U5uAhvUqQGwTddRXk7hUVPlk+Q5VFxC/Tj6RE8zXJ9H25l59cL/Pjerlrrpar57rkuua65brnestVZgyIAlJgClCBKmAFrgAWyApZW66QFbJCVsgKWSErZIVskA2ytWMoZKmGY0A2yAbZIBtkh+yQHbK3EyZnh+yQHbJDdshLJYcVV7dmcsWM/DRtZ78EXQ7zKKq4HOaWL9oHInn9xn6xnf2y7mlGjM6OSiU7RJfDbrnsnX+pJhqm2Zqhbp+wQkfFgSrCST9aTHrRLqmCtk60xKt/E+G/gg6xdU8iqNCm0WtCqx4ZFH9bOxHXorStUlqIdi5VUE+4RD834bwTu049Ed3akxJdvRNO0Crak2IoxYUwTj12nUrjc9BbJ8JNEYdbXElLNErgQCIvOwkOJPydoOHi3G8V9UlR89e6zIX4mmwp0wg52XZS+0ndeuXzSWmvdksV/TDt3tT7evn5fT4///VDGkNwDMExBMcQHENwDMExBMcQHEPwPw7Bx/sP7NMYgQ==

$$$$
