@<TRIPOS>MOLECULE
MOL
   86    92     1     0     0
SMALL
bcc


@<TRIPOS>ATOM
      1 C1          39.2690    34.5000    36.4410 cc         1 MOL       0.431700
      2 C2          37.4210    36.3760    40.2330 c3         1 MOL       0.101800
      3 C3          40.7960    33.9240    35.0400 cd         1 MOL       0.187000
      4 C4          41.7070    33.1870    34.1900 cd         1 MOL       0.473400
      5 C5          38.2700    35.3090    40.9420 c3         1 MOL      -0.113400
      6 C6          38.3060    34.3600    37.5990 c3         1 MOL       0.100400
      7 C7          41.0370    35.1860    35.5120 cc         1 MOL       0.253700
      8 C8          38.3590    33.9410    40.2190 c3         1 MOL      -0.094400
      9 C9          42.5690    31.4880    33.2710 cc         1 MOL       0.156000
     10 C10         42.8320    30.1340    32.8230 cc         1 MOL       0.514400
     11 C11         44.3870    24.2220    35.0490 c3         1 MOL       0.106800
     12 C12         43.4590    32.5230    33.2360 cd         1 MOL       0.263700
     13 C13         42.9520    23.6760    34.9680 c3         1 MOL      -0.111400
     14 C14         42.5770    28.0150    32.5730 cd         1 MOL       0.150500
     15 C15         41.9530    24.6530    35.6310 c3         1 MOL      -0.087400
     16 C16         43.7780    28.4100    32.0590 cc         1 MOL       0.258300
     17 C17         42.2060    26.5960    32.6140 c          1 MOL       0.652600
     18 C18         39.1360    33.9860    38.8610 c3         1 MOL      -0.101400
     19 C19         36.0620    33.2060    37.6670 c          1 MOL       0.650600
     20 C20         35.4520    31.9900    37.1210 cc         1 MOL       0.145500
     21 C21         34.2000    31.5630    37.4430 cd         1 MOL       0.272300
     22 C22         40.5350    24.5990    35.0170 c3         1 MOL      -0.094400
     23 C23         35.0750    30.1330    36.1860 cd         1 MOL       0.504400
     24 C24         35.3250    28.9190    35.4600 cd         1 MOL       0.164000
     25 C25         42.2240    36.0650    35.2400 c3         1 MOL      -0.148400
     26 C26         34.3700    27.9530    35.3850 cc         1 MOL       0.242300
     27 C27         44.9190    32.4680    32.8990 c3         1 MOL      -0.150400
     28 C28         36.0840    27.2470    34.4060 cc         1 MOL       0.470400
     29 C29         37.0640    26.3410    33.8700 cc         1 MOL       0.192000
     30 C30         40.3780    25.1490    33.5640 c3         1 MOL       0.099400
     31 C31         36.8240    25.0330    33.5870 cd         1 MOL       0.232300
     32 C32         38.9000    25.4310    33.3890 cd         1 MOL       0.441700
     33 N1          35.9690    36.0100    40.0810 nz         1 MOL      -0.846600
     34 N2          44.5060    25.4670    34.2140 nz         1 MOL      -0.837600
     35 N3          39.6190    33.4810    35.6220 nd         1 MOL      -0.588000
     36 N4          41.1020    26.4140    33.3460 ns         1 MOL      -0.529900
     37 N5          41.4010    31.9060    33.8870 nc         1 MOL      -0.571000
     38 N6          36.4590    28.4810    34.8040 nd         1 MOL      -0.572000
     39 N7          41.9420    29.1520    33.0670 nd         1 MOL      -0.618000
     40 N8          36.0460    31.0610    36.2780 nc         1 MOL      -0.613000
     41 N9          37.3390    33.3020    37.2770 ns         1 MOL      -0.532900
     42 N10         38.4010    26.6290    33.7530 nc         1 MOL      -0.597000
     43 O1          43.9920    29.7480    32.2000 os         1 MOL      -0.374800
     44 O2          33.9090    30.3590    36.8770 os         1 MOL      -0.367800
     45 O3          42.9430    33.6560    33.7890 os         1 MOL      -0.379800
     46 O4          40.0930    35.6030    36.3960 os         1 MOL      -0.388800
     47 O5          34.8000    26.8540    34.7030 os         1 MOL      -0.367800
     48 O6          37.9910    24.3910    33.2670 os         1 MOL      -0.375800
     49 O7          35.5480    34.0130    38.4130 o          1 MOL      -0.730100
     50 O8          42.8560    25.6610    32.1900 o          1 MOL      -0.751100
     51 H1          37.8460    36.5820    39.2510 hx         1 MOL       0.106700
     52 H2          37.5010    37.3190    40.7730 hx         1 MOL       0.106700
     53 H3          37.8890    35.1580    41.9520 hc         1 MOL       0.087200
     54 H4          39.2760    35.6970    41.1030 hc         1 MOL       0.087200
     55 H5          37.7840    35.3030    37.7640 h1         1 MOL       0.064700
     56 H6          37.3530    33.5570    40.0470 hc         1 MOL       0.066700
     57 H7          38.8290    33.2130    40.8800 hc         1 MOL       0.066700
     58 H8          45.0830    23.4690    34.6800 hx         1 MOL       0.107200
     59 H9          44.6290    24.4560    36.0860 hx         1 MOL       0.107200
     60 H10         42.9020    22.7100    35.4700 hc         1 MOL       0.084700
     61 H11         42.6780    23.5300    33.9230 hc         1 MOL       0.084700
     62 H12         42.3400    25.6700    35.5590 hc         1 MOL       0.057700
     63 H13         41.8930    24.4400    36.6980 hc         1 MOL       0.057700
     64 H14         44.4360    27.6840    31.6050 h4         1 MOL       0.082100
     65 H15         39.9790    34.6710    38.9520 hc         1 MOL       0.079200
     66 H16         39.6270    33.0270    38.6960 hc         1 MOL       0.079200
     67 H17         33.5710    32.1670    38.0800 h4         1 MOL       0.088100
     68 H18         39.8390    25.1200    35.6750 hc         1 MOL       0.081200
     69 H19         40.1670    23.5740    35.0540 hc         1 MOL       0.081200
     70 H20         42.1060    37.0100    35.7700 hc         1 MOL       0.082033
     71 H21         43.1310    35.5680    35.5830 hc         1 MOL       0.082033
     72 H22         42.2980    36.2560    34.1690 hc         1 MOL       0.082033
     73 H23         33.4040    28.1130    35.8400 h4         1 MOL       0.091100
     74 H24         45.3450    33.4690    32.9630 hc         1 MOL       0.081700
     75 H25         45.4300    31.8110    33.6020 hc         1 MOL       0.081700
     76 H26         45.0440    32.0840    31.8870 hc         1 MOL       0.081700
     77 H27         40.7050    24.4010    32.8420 h1         1 MOL       0.081700
     78 H28         35.8170    24.6460    33.6350 h4         1 MOL       0.093100
     79 H29         35.4810    36.7570    39.6080 hn         1 MOL       0.468467
     80 H30         35.8900    35.1610    39.5390 hn         1 MOL       0.468467
     81 H31         35.5600    35.8650    40.9930 hn         1 MOL       0.468467
     82 H32         45.4500    25.8220    34.2700 hn         1 MOL       0.467467
     83 H33         44.2850    25.2500    33.2520 hn         1 MOL       0.467467
     84 H34         43.8630    26.1660    34.5570 hn         1 MOL       0.467467
     85 H35         40.6770    27.1970    33.8230 hn         1 MOL       0.370500
     86 H36         37.7420    32.5880    36.6880 hn         1 MOL       0.369500
@<TRIPOS>BOND
     1     1     6 1   
     2     1    35 2   
     3     1    46 1   
     4     2     5 1   
     5     2    33 1   
     6     2    51 1   
     7     2    52 1   
     8     3     4 1   
     9     3     7 2   
    10     3    35 1   
    11     4    37 2   
    12     4    45 1   
    13     5     8 1   
    14     5    53 1   
    15     5    54 1   
    16     6    18 1   
    17     6    41 1   
    18     6    55 1   
    19     7    25 1   
    20     7    46 1   
    21     8    18 1   
    22     8    56 1   
    23     8    57 1   
    24     9    10 1   
    25     9    12 2   
    26     9    37 1   
    27    10    39 2   
    28    10    43 1   
    29    11    13 1   
    30    11    34 1   
    31    11    58 1   
    32    11    59 1   
    33    12    27 1   
    34    12    45 1   
    35    13    15 1   
    36    13    60 1   
    37    13    61 1   
    38    14    16 2   
    39    14    17 1   
    40    14    39 1   
    41    15    22 1   
    42    15    62 1   
    43    15    63 1   
    44    16    43 1   
    45    16    64 1   
    46    17    36 1   
    47    17    50 2   
    48    18    65 1   
    49    18    66 1   
    50    19    20 1   
    51    19    41 1   
    52    19    49 2   
    53    20    21 2   
    54    20    40 1   
    55    21    44 1   
    56    21    67 1   
    57    22    30 1   
    58    22    68 1   
    59    22    69 1   
    60    23    24 1   
    61    23    40 2   
    62    23    44 1   
    63    24    26 2   
    64    24    38 1   
    65    25    70 1   
    66    25    71 1   
    67    25    72 1   
    68    26    47 1   
    69    26    73 1   
    70    27    74 1   
    71    27    75 1   
    72    27    76 1   
    73    28    29 1   
    74    28    38 2   
    75    28    47 1   
    76    29    31 2   
    77    29    42 1   
    78    30    32 1   
    79    30    36 1   
    80    30    77 1   
    81    31    48 1   
    82    31    78 1   
    83    32    42 2   
    84    32    48 1   
    85    33    79 1   
    86    33    80 1   
    87    33    81 1   
    88    34    82 1   
    89    34    83 1   
    90    34    84 1   
    91    36    85 1   
    92    41    86 1   
@<TRIPOS>SUBSTRUCTURE
     1 MOL         1 TEMP              0 ****  ****    0 ROOT
