@<TRIPOS>MOLECULE
MOL
   59    60     1     0     0
SMALL
bcc


@<TRIPOS>ATOM
      1 C1          14.8530    25.1950     2.0330 cz         1 MOL       0.530300
      2 N1          15.8410    24.3170     2.1380 nv         1 MOL      -0.519600
      3 N2          14.8420    26.0390     1.0100 nv         1 MOL      -0.503700
      4 N3          14.0050    25.3920     3.0450 nu         1 MOL      -0.381200
      5 C2          13.2460    24.2950     3.6290 c3         1 MOL      -0.060700
      6 C3          12.0880    24.7760     4.4890 c          1 MOL       0.654100
      7 O1          11.5380    25.8740     4.2800 o          1 MOL      -0.594100
      8 N4          11.8000    23.8800     5.4580 ns         1 MOL      -0.405100
      9 C4          10.6850    24.0050     6.2290 cc         1 MOL      -0.075400
     10 C5          10.2780    23.1480     7.2360 cc         1 MOL      -0.169000
     11 C6           9.0460    23.6150     7.7390 cd         1 MOL      -0.171900
     12 N5           8.7360    24.7850     7.0360 na         1 MOL       0.003900
     13 C7           7.5230    25.7050     7.2270 c3         1 MOL       0.009600
     14 C8           9.6830    24.9730     6.1620 cd         1 MOL      -0.112300
     15 C9           8.3660    23.1260     8.8890 c          1 MOL       0.708700
     16 O2           7.1990    23.4550     9.1440 o          1 MOL      -0.605100
     17 N6           9.0690    22.5410     9.9010 ns         1 MOL      -0.437100
     18 C10          8.5070    21.8590    10.9450 cc         1 MOL      -0.030400
     19 C11          9.2300    21.1820    11.9110 cc         1 MOL      -0.161000
     20 C12          8.3250    20.4760    12.7120 cd         1 MOL      -0.216900
     21 N7           7.0290    20.7620    12.2280 na         1 MOL       0.004900
     22 C13          5.6980    20.4270    12.8690 c3         1 MOL       0.013600
     23 C14          7.1620    21.5500    11.2010 cd         1 MOL      -0.105300
     24 C15          8.7010    19.7310    13.8630 c          1 MOL       0.733700
     25 O3           7.9310    18.9670    14.4680 o          1 MOL      -0.691100
     26 N8           9.9070    19.8900    14.4240 ns         1 MOL      -0.574900
     27 C16         10.3220    19.2040    15.6200 c3         1 MOL       0.110000
     28 C17         10.9280    17.8700    15.3280 c3         1 MOL      -0.193700
     29 C18         11.5770    17.3290    16.5760 c2         1 MOL       0.448800
     30 N9          10.9980    16.3770    17.3020 nv         1 MOL      -0.467100
     31 N10         12.6050    18.0230    17.0480 nv         1 MOL      -0.451200
     32 H1          15.8610    23.6690     2.9130 hn         1 MOL       0.329700
     33 H2          16.5740    24.2960     1.4440 hn         1 MOL       0.329700
     34 H3          14.0950    26.7120     0.9190 hn         1 MOL       0.329700
     35 H4          15.5810    26.0080     0.3220 hn         1 MOL       0.329700
     36 H5          13.8780    26.3200     3.4240 hn         1 MOL       0.353700
     37 H6          13.9110    23.6740     4.2300 h1         1 MOL       0.084200
     38 H7          12.8650    23.6540     2.8340 h1         1 MOL       0.084200
     39 H8          12.4180    23.0980     5.6220 hn         1 MOL       0.329500
     40 H9          10.8890    22.2980     7.5010 ha         1 MOL       0.153000
     41 H10          7.5790    26.5320     6.5190 h1         1 MOL       0.077033
     42 H11          6.6070    25.1400     7.0540 h1         1 MOL       0.077033
     43 H12          7.5200    26.0970     8.2440 h1         1 MOL       0.077033
     44 H13          9.7490    25.7690     5.4350 h4         1 MOL       0.209000
     45 H14         10.0780    22.5950     9.9120 hn         1 MOL       0.326500
     46 H15         10.3060    21.2650    11.9370 ha         1 MOL       0.150000
     47 H16          4.8880    20.7880    12.2360 h1         1 MOL       0.071700
     48 H17          5.6120    19.3470    12.9860 h1         1 MOL       0.071700
     49 H18          5.6350    20.9040    13.8470 h1         1 MOL       0.071700
     50 H19          6.3850    21.9590    10.5720 h4         1 MOL       0.220000
     51 H20         10.5790    20.5180    14.0070 hn         1 MOL       0.336500
     52 H21          9.4640    19.0760    16.2800 h1         1 MOL       0.073200
     53 H22         11.0420    19.8190    16.1590 h1         1 MOL       0.073200
     54 H23         11.6790    17.9760    14.5450 hc         1 MOL       0.108700
     55 H24         10.1500    17.1830    14.9960 hc         1 MOL       0.108700
     56 H25         11.4520    16.0300    18.1350 hn         1 MOL       0.333700
     57 H26         10.1040    16.0010    17.0210 hn         1 MOL       0.333700
     58 H27         13.0830    17.7130    17.8820 hn         1 MOL       0.333700
     59 H28         12.9090    18.8610    16.5730 hn         1 MOL       0.333700
@<TRIPOS>BOND
     1     1     2 2   
     2     1     3 1   
     3     1     4 1   
     4     2    32 1   
     5     2    33 1   
     6     3    34 1   
     7     3    35 1   
     8     4     5 1   
     9     4    36 1   
    10     5     6 1   
    11     5    37 1   
    12     5    38 1   
    13     6     7 2   
    14     6     8 1   
    15     8     9 1   
    16     8    39 1   
    17     9    10 1   
    18     9    14 2   
    19    10    11 2   
    20    10    40 1   
    21    11    12 1   
    22    11    15 1   
    23    12    13 1   
    24    12    14 1   
    25    13    41 1   
    26    13    42 1   
    27    13    43 1   
    28    14    44 1   
    29    15    16 2   
    30    15    17 1   
    31    17    18 1   
    32    17    45 1   
    33    18    19 1   
    34    18    23 2   
    35    19    20 2   
    36    19    46 1   
    37    20    21 1   
    38    20    24 1   
    39    21    22 1   
    40    21    23 1   
    41    22    47 1   
    42    22    48 1   
    43    22    49 1   
    44    23    50 1   
    45    24    25 2   
    46    24    26 1   
    47    26    27 1   
    48    26    51 1   
    49    27    28 1   
    50    27    52 1   
    51    27    53 1   
    52    28    29 1   
    53    28    54 1   
    54    28    55 1   
    55    29    30 2   
    56    29    31 1   
    57    30    56 1   
    58    30    57 1   
    59    31    58 1   
    60    31    59 1   
@<TRIPOS>SUBSTRUCTURE
     1 MOL         1 TEMP              0 ****  ****    0 ROOT
