
                    3D
 Schrodinger Suite 2021-1.
 59 60  0  0  1  0            999 V2000
   14.8530   25.1950    2.0330 C   0  0  0  0  0  0
   15.8410   24.3170    2.1380 N   0  3  0  0  0  0
   14.8420   26.0390    1.0100 N   0  0  0  0  0  0
   14.0050   25.3920    3.0450 N   0  0  0  0  0  0
   13.2460   24.2950    3.6290 C   0  0  0  0  0  0
   12.0880   24.7760    4.4890 C   0  0  0  0  0  0
   11.5380   25.8740    4.2800 O   0  0  0  0  0  0
   11.8000   23.8800    5.4580 N   0  0  0  0  0  0
   10.6850   24.0050    6.2290 C   0  0  0  0  0  0
   10.2780   23.1480    7.2360 C   0  0  0  0  0  0
    9.0460   23.6150    7.7390 C   0  0  0  0  0  0
    8.7360   24.7850    7.0360 N   0  0  0  0  0  0
    7.5230   25.7050    7.2270 C   0  0  0  0  0  0
    9.6830   24.9730    6.1620 C   0  0  0  0  0  0
    8.3660   23.1260    8.8890 C   0  0  0  0  0  0
    7.1990   23.4550    9.1440 O   0  0  0  0  0  0
    9.0690   22.5410    9.9010 N   0  0  0  0  0  0
    8.5070   21.8590   10.9450 C   0  0  0  0  0  0
    9.2300   21.1820   11.9110 C   0  0  0  0  0  0
    8.3250   20.4760   12.7120 C   0  0  0  0  0  0
    7.0290   20.7620   12.2280 N   0  0  0  0  0  0
    5.6980   20.4270   12.8690 C   0  0  0  0  0  0
    7.1620   21.5500   11.2010 C   0  0  0  0  0  0
    8.7010   19.7310   13.8630 C   0  0  0  0  0  0
    7.9310   18.9670   14.4680 O   0  0  0  0  0  0
    9.9070   19.8900   14.4240 N   0  0  0  0  0  0
   10.3220   19.2040   15.6200 C   0  0  0  0  0  0
   10.9280   17.8700   15.3280 C   0  0  0  0  0  0
   11.5770   17.3290   16.5760 C   0  0  0  0  0  0
   10.9980   16.3770   17.3020 N   0  3  0  0  0  0
   12.6050   18.0230   17.0480 N   0  0  0  0  0  0
   15.8606   23.6690    2.9125 H   0  0  0  0  0  0
   16.5740   24.2962    1.4435 H   0  0  0  0  0  0
   14.0948   26.7125    0.9190 H   0  0  0  0  0  0
   15.5808   26.0083    0.3220 H   0  0  0  0  0  0
   13.8777   26.3195    3.4239 H   0  0  0  0  0  0
   13.9105   23.6745    4.2303 H   0  0  0  0  0  0
   12.8649   23.6544    2.8337 H   0  0  0  0  0  0
   12.4175   23.0978    5.6223 H   0  0  0  0  0  0
   10.8888   22.2977    7.5011 H   0  0  0  0  0  0
    7.5786   26.5321    6.5192 H   0  0  0  0  0  0
    6.6070   25.1401    7.0537 H   0  0  0  0  0  0
    7.5204   26.0973    8.2440 H   0  0  0  0  0  0
    9.7491   25.7693    5.4354 H   0  0  0  0  0  0
   10.0775   22.5953    9.9125 H   0  0  0  0  0  0
   10.3065   21.2653   11.9371 H   0  0  0  0  0  0
    4.8879   20.7885   12.2357 H   0  0  0  0  0  0
    5.6123   19.3467   12.9864 H   0  0  0  0  0  0
    5.6347   20.9043   13.8469 H   0  0  0  0  0  0
    6.3849   21.9588   10.5722 H   0  0  0  0  0  0
   10.5793   20.5177   14.0067 H   0  0  0  0  0  0
    9.4643   19.0757   16.2803 H   0  0  0  0  0  0
   11.0424   19.8191   16.1592 H   0  0  0  0  0  0
   11.6788   17.9759   14.5450 H   0  0  0  0  0  0
   10.1499   17.1826   14.9962 H   0  0  0  0  0  0
   11.4524   16.0302   18.1347 H   0  0  0  0  0  0
   10.1039   16.0008   17.0207 H   0  0  0  0  0  0
   13.0834   17.7130   17.8818 H   0  0  0  0  0  0
   12.9090   18.8612   16.5735 H   0  0  0  0  0  0
  1  2  2  0  0  0
  1  3  1  0  0  0
  1  4  1  0  0  0
  2 32  1  0  0  0
  2 33  1  0  0  0
  3 34  1  0  0  0
  3 35  1  0  0  0
  4  5  1  0  0  0
  4 36  1  0  0  0
  5  6  1  0  0  0
  5 37  1  0  0  0
  5 38  1  0  0  0
  6  7  2  0  0  0
  6  8  1  0  0  0
  8  9  1  0  0  0
  8 39  1  0  0  0
  9 10  1  0  0  0
  9 14  2  0  0  0
 10 11  2  0  0  0
 10 40  1  0  0  0
 11 12  1  0  0  0
 11 15  1  0  0  0
 12 13  1  0  0  0
 12 14  1  0  0  0
 13 41  1  0  0  0
 13 42  1  0  0  0
 13 43  1  0  0  0
 14 44  1  0  0  0
 15 16  2  0  0  0
 15 17  1  0  0  0
 17 18  1  0  0  0
 17 45  1  0  0  0
 18 19  1  0  0  0
 18 23  2  0  0  0
 19 20  2  0  0  0
 19 46  1  0  0  0
 20 21  1  0  0  0
 20 24  1  0  0  0
 21 22  1  0  0  0
 21 23  1  0  0  0
 22 47  1  0  0  0
 22 48  1  0  0  0
 22 49  1  0  0  0
 23 50  1  0  0  0
 24 25  2  0  0  0
 24 26  1  0  0  0
 26 27  1  0  0  0
 26 51  1  0  0  0
 27 28  1  0  0  0
 27 52  1  0  0  0
 27 53  1  0  0  0
 28 29  1  0  0  0
 28 54  1  0  0  0
 28 55  1  0  0  0
 29 30  2  0  0  0
 29 31  1  0  0  0
 30 56  1  0  0  0
 30 57  1  0  0  0
 31 58  1  0  0  0
 31 59  1  0  0  0
M  CHG  2   2   1  30   1
M  END
> <s_pdb_PDB_format_version>
3.0

> <b_ppw_prepared>
1

> <s_ppw_prepared_with_version>
2021-1

> <s_ppw_het_states>
eJxNkksOwjAQQ68SZR1Qxkl/XKXqDRA7Voi7Mw7jqiywPYQXM/STLT/S7i8rqR4l7SjJqC1yD51C59AldA3dQq3KiGiQEdMENVFNWBPXBDaRITLOriJDZIgMkSEyRIbIELlV/ehBpuM+nI7RoKQWB9z2sK5TWNc5rOsSX3O7xtR1C0utF991CYem4Mb0T4ygq8a0XYP6jCOzAAyLPqFRlWG2S+DuoEVzx9CyuWc7g+7hFLgG1eER7h1n0FZooDo0UB0aqA5NOxswjAaebvXu809uqz+u7mv1Brl3Jb8sT9UTD35Ler2fz//7cXx/mK6aLA==

$$$$
