@<TRIPOS>MOLECULE
MOL
  176   182     1     0     0
SMALL
bcc


@<TRIPOS>ATOM
      1 N1           4.0220    21.3730     9.9950 ns         1 MOL      -0.524900
      2 C1           3.8070    19.9850     9.5820 c3         1 MOL       0.032700
      3 C2           4.7710    19.0560    10.2740 c          1 MOL       0.666100
      4 O1           5.8600    19.4670    10.6650 o          1 MOL      -0.638100
      5 C3           3.9590    19.7390     8.0720 c3         1 MOL       0.134100
      6 O2           5.2200    20.3180     7.6790 os         1 MOL      -0.440900
      7 C4           2.8550    20.3630     7.2380 c3         1 MOL      -0.112100
      8 H1           4.6470    21.4060    10.7550 hn         1 MOL       0.344500
      9 N2           4.3420    17.8070    10.4490 ns         1 MOL      -0.552900
     10 C5           5.2480    16.7400    10.8440 c3         1 MOL       0.044700
     11 C6           4.8040    15.4080    10.1890 c3         1 MOL      -0.065700
     12 C7           5.7550    14.2510    10.4660 c3         1 MOL      -0.102600
     13 C8           4.5880    15.5350     8.6840 c3         1 MOL      -0.102600
     14 C9           5.3540    16.6310    12.3660 c          1 MOL       0.665100
     15 O3           4.3740    16.2150    12.9890 o          1 MOL      -0.658100
     16 H2           3.3970    17.5990    10.3220 hn         1 MOL       0.352500
     17 N3           6.4490    17.0080    13.0450 n          1 MOL      -0.427800
     18 C10          7.6610    17.5990    12.4710 c3         1 MOL       0.020700
     19 C11          8.5190    16.6320    11.6530 c          1 MOL       0.647100
     20 O4           8.6370    15.4720    12.0550 o          1 MOL      -0.575100
     21 C12          8.4140    18.0480    13.7020 c3         1 MOL      -0.077400
     22 C13          7.3780    18.1820    14.7790 c3         1 MOL      -0.097400
     23 C14          6.5550    16.9490    14.4970 c3         1 MOL       0.082000
     24 N4           9.1400    17.0450    10.5330 n          1 MOL      -0.454800
     25 C15          9.1120    18.3940     9.9830 c3         1 MOL       0.025000
     26 C16          8.2050    18.5580     8.7630 c          1 MOL       0.646100
     27 O5           7.3950    17.6630     8.5090 o          1 MOL      -0.598100
     28 C17          9.9450    16.0920     9.7770 c3         1 MOL       0.057300
     29 N5           8.2680    19.6540     7.9820 n          1 MOL      -0.471800
     30 C18          9.0810    20.7840     8.4140 c3         1 MOL       0.086300
     31 C19          7.5090    19.9260     6.7620 c3         1 MOL       0.088700
     32 C20          8.3020    19.3900     5.5180 c3         1 MOL      -0.065700
     33 C21          8.2990    17.8710     5.3400 c3         1 MOL      -0.100600
     34 C22          7.8980    20.1290     4.2480 c3         1 MOL      -0.100600
     35 C23          6.0110    19.5790     6.8080 c          1 MOL       0.642100
     36 O6           5.4620    18.9500     5.8980 o          1 MOL      -0.521000
     37 C24          3.0020    23.4950    10.4950 cc         1 MOL      -0.396000
     38 C25          2.9440    22.0890    10.3220 c          1 MOL       0.705300
     39 O7           1.8760    21.5090    10.5130 o          1 MOL      -0.655100
     40 C26          2.7660    24.4300     9.4400 cd         1 MOL       0.177800
     41 N6           2.4730    24.0530     8.1910 nv         1 MOL      -0.828600
     42 C27          2.8370    25.8240     9.7010 c          1 MOL       0.570500
     43 O8           2.6300    26.6200     8.7770 o          1 MOL      -0.517100
     44 C28          3.1350    26.3050    11.0030 cd         1 MOL      -0.216400
     45 O9           3.6450    25.8010    13.3050 os         1 MOL      -0.372800
     46 C29          4.1570    25.3450    15.6210 ca         1 MOL      -0.098600
     47 C30          4.3760    24.3840    16.6310 ca         1 MOL      -0.148000
     48 C31          4.3020    23.0030    16.3440 ca         1 MOL       0.150900
     49 F1           4.5280    22.1370    17.3500 f          1 MOL      -0.123900
     50 C32          4.0000    22.5590    15.0300 ca         1 MOL      -0.189900
     51 C33          3.9130    21.1880    14.6940 c          1 MOL       0.697700
     52 O10          4.9290    20.6150    14.2850 o          1 MOL      -0.592100
     53 N7           3.5080    23.1480    12.7840 nd         1 MOL      -0.632000
     54 C34          3.2950    23.9870    11.7900 cc         1 MOL       0.462800
     55 C35          3.3630    25.3850    12.0460 cc         1 MOL       0.200400
     56 C36          3.8630    24.9180    14.3080 ca         1 MOL       0.204700
     57 C37          3.7850    23.5270    14.0160 ca         1 MOL       0.322300
     58 C38          3.2070    27.8010    11.2850 c3         1 MOL      -0.044900
     59 C39          4.2410    26.8250    15.9620 c3         1 MOL      -0.054800
     60 H3           2.3140    24.7600     7.4800 hn         1 MOL       0.457800
     61 H4           2.4030    23.0770     7.9420 hn         1 MOL       0.457800
     62 N8           2.7400    20.5300    14.7760 ns         1 MOL      -0.538900
     63 C40          2.7850    19.0690    14.6220 c3         1 MOL       0.027700
     64 C41          1.6240    18.5200    13.8200 c          1 MOL       0.660100
     65 O11          0.5380    19.0920    13.8190 o          1 MOL      -0.669100
     66 C42          2.8240    18.2650    15.9460 c3         1 MOL       0.130100
     67 O12          1.6790    18.6530    16.7200 os         1 MOL      -0.448900
     68 C43          4.0460    18.4820    16.8180 c3         1 MOL      -0.106100
     69 H5           2.0770    20.9350    14.1780 hn         1 MOL       0.335500
     70 N9           1.8300    17.3880    13.1540 ns         1 MOL      -0.543900
     71 C44          0.7610    16.7020    12.4480 c3         1 MOL       0.048700
     72 C45          1.0430    15.1800    12.4110 c3         1 MOL      -0.061700
     73 C46         -0.0470    14.3790    11.7130 c3         1 MOL      -0.105100
     74 C47          1.2880    14.5940    13.7930 c3         1 MOL      -0.105100
     75 C48          0.6680    17.3000    11.0470 c          1 MOL       0.663100
     76 O13          1.6160    17.1150    10.2760 o          1 MOL      -0.658100
     77 H6           2.7280    17.0100    13.1170 hn         1 MOL       0.359500
     78 N10         -0.3680    18.0600    10.6640 n          1 MOL      -0.431800
     79 C49         -1.5230    18.4330    11.4940 c3         1 MOL       0.026700
     80 C50         -2.5210    17.3280    11.8590 c          1 MOL       0.640100
     81 O14         -2.6920    16.4010    11.0580 o          1 MOL      -0.571100
     82 C51         -2.1760    19.5080    10.6560 c3         1 MOL      -0.076400
     83 C52         -1.8950    19.0880     9.2380 c3         1 MOL      -0.094400
     84 C53         -0.4330    18.7230     9.3620 c3         1 MOL       0.087000
     85 N11         -3.1520    17.3420    13.0460 n          1 MOL      -0.450800
     86 C54         -2.9290    18.2840    14.1350 c3         1 MOL       0.022000
     87 C55         -1.9670    17.7650    15.2090 c          1 MOL       0.629100
     88 O15         -1.5610    16.6070    15.1220 o          1 MOL      -0.591100
     89 C56         -4.2140    16.3750    13.2900 c3         1 MOL       0.054300
     90 N12         -1.5630    18.5550    16.2260 n          1 MOL      -0.452800
     91 C57         -1.7610    19.9900    16.1100 c3         1 MOL       0.066300
     92 C58         -0.6990    18.2060    17.3530 c3         1 MOL       0.081700
     93 C59         -1.3930    17.2290    18.3530 c3         1 MOL      -0.071700
     94 C60         -0.5220    16.9910    19.5830 c3         1 MOL      -0.091100
     95 C61         -2.7420    17.7520    18.8290 c3         1 MOL      -0.091100
     96 C62          0.6820    17.7080    16.9180 c          1 MOL       0.609100
     97 O16          0.8850    16.5240    16.6390 o          1 MOL      -0.515000
     98 H7           2.7960    19.6990     9.8710 h1         1 MOL       0.123700
     99 H8           3.9850    18.6650     7.8850 h1         1 MOL       0.096700
    100 H9           3.0290    20.1480     6.1840 hc         1 MOL       0.051033
    101 H10          1.8930    19.9480     7.5390 hc         1 MOL       0.051033
    102 H11          2.8490    21.4420     7.3920 hc         1 MOL       0.051033
    103 H12          6.2380    16.9850    10.4590 h1         1 MOL       0.099700
    104 H13          3.8420    15.1420    10.6280 hc         1 MOL       0.060700
    105 H14          5.3840    13.3500     9.9780 hc         1 MOL       0.047533
    106 H15          6.7450    14.4920    10.0780 hc         1 MOL       0.047533
    107 H16          5.8190    14.0820    11.5410 hc         1 MOL       0.047533
    108 H17          4.2780    14.5720     8.2780 hc         1 MOL       0.047533
    109 H18          3.8140    16.2770     8.4890 hc         1 MOL       0.047533
    110 H19          5.5180    15.8470     8.2080 hc         1 MOL       0.047533
    111 H20          7.3980    18.4640    11.8630 h1         1 MOL       0.112700
    112 H21          8.8680    19.0210    13.5140 hc         1 MOL       0.059200
    113 H22          9.1340    17.2800    13.9860 hc         1 MOL       0.059200
    114 H23          6.7720    19.0660    14.5810 hc         1 MOL       0.061200
    115 H24          7.8600    18.0730    15.7510 hc         1 MOL       0.061200
    116 H25          7.1280    16.0650    14.7780 h1         1 MOL       0.062700
    117 H26          5.5640    17.0740    14.9330 h1         1 MOL       0.062700
    118 H27         10.1260    18.6990     9.7230 h1         1 MOL       0.081200
    119 H28          8.8030    19.0940    10.7590 h1         1 MOL       0.081200
    120 H29         10.3730    16.5880     8.9060 h1         1 MOL       0.052367
    121 H30         10.7480    15.7120    10.4090 h1         1 MOL       0.052367
    122 H31          9.3170    15.2630     9.4500 h1         1 MOL       0.052367
    123 H32          9.0210    21.5800     7.6720 h1         1 MOL       0.041700
    124 H33          8.7130    21.1520     9.3720 h1         1 MOL       0.041700
    125 H34         10.1180    20.4660     8.5220 h1         1 MOL       0.041700
    126 H35          7.5360    21.0110     6.6580 h1         1 MOL       0.075700
    127 H36          9.3430    19.6610     5.6960 hc         1 MOL       0.046700
    128 H37          8.8740    17.6080     4.4520 hc         1 MOL       0.046200
    129 H38          8.7470    17.4010     6.2160 hc         1 MOL       0.046200
    130 H39          7.2730    17.5200     5.2250 hc         1 MOL       0.046200
    131 H40          8.4640    19.7360     3.4030 hc         1 MOL       0.046200
    132 H41          6.8320    19.9880     4.0680 hc         1 MOL       0.046200
    133 H42          8.1090    21.1920     4.3630 hc         1 MOL       0.046200
    134 H43          4.6030    24.7010    17.6380 ha         1 MOL       0.163000
    135 H44          3.4460    27.9620    12.3360 hc         1 MOL       0.057700
    136 H45          3.9810    28.2520    10.6640 hc         1 MOL       0.057700
    137 H46          2.2450    28.2610    11.0570 hc         1 MOL       0.057700
    138 H47          4.0460    27.4160    15.0670 hc         1 MOL       0.058367
    139 H48          3.5000    27.0650    16.7250 hc         1 MOL       0.058367
    140 H49          5.2370    27.0560    16.3390 hc         1 MOL       0.058367
    141 H50          3.6960    18.8310    14.0740 h1         1 MOL       0.123700
    142 H51          2.7450    17.2030    15.7130 h1         1 MOL       0.108700
    143 H52          3.9650    17.8700    17.7160 hc         1 MOL       0.053367
    144 H53          4.9420    18.1990    16.2650 hc         1 MOL       0.053367
    145 H54          4.1100    19.5330    17.1000 hc         1 MOL       0.053367
    146 H55         -0.1790    16.8760    12.9720 h1         1 MOL       0.088700
    147 H56          1.9590    15.0390    11.8380 hc         1 MOL       0.058700
    148 H57          0.2150    13.3210    11.7240 hc         1 MOL       0.049533
    149 H58         -0.9940    14.5230    12.2330 hc         1 MOL       0.049533
    150 H59         -0.1440    14.7180    10.6820 hc         1 MOL       0.049533
    151 H60          1.4800    13.5250    13.7060 hc         1 MOL       0.049533
    152 H61          2.1500    15.0820    14.2470 hc         1 MOL       0.049533
    153 H62          0.4090    14.7550    14.4180 hc         1 MOL       0.049533
    154 H63         -1.1560    18.8870    12.4150 h1         1 MOL       0.103700
    155 H64         -1.6900    20.4630    10.8520 hc         1 MOL       0.058200
    156 H65         -3.2520    19.4960    10.8290 hc         1 MOL       0.058200
    157 H66         -1.9900    19.9560     8.5850 hc         1 MOL       0.061200
    158 H67         -2.4680    18.1880     9.0140 hc         1 MOL       0.061200
    159 H68         -0.1730    18.0080     8.5810 h1         1 MOL       0.064700
    160 H69          0.1640    19.6340     9.3920 h1         1 MOL       0.064700
    161 H70         -3.8840    18.5360    14.5960 h1         1 MOL       0.084200
    162 H71         -2.5470    19.2210    13.7300 h1         1 MOL       0.084200
    163 H72         -4.6170    16.5220    14.2920 h1         1 MOL       0.053367
    164 H73         -5.0080    16.5140    12.5560 h1         1 MOL       0.053367
    165 H74         -3.8130    15.3650    13.2050 h1         1 MOL       0.053367
    166 H75         -1.3850    20.4830    17.0060 h1         1 MOL       0.049700
    167 H76         -1.2230    20.3620    15.2380 h1         1 MOL       0.049700
    168 H77         -2.8240    20.2030    15.9980 h1         1 MOL       0.049700
    169 H78         -0.5280    19.1320    17.9020 h1         1 MOL       0.080700
    170 H79         -1.5500    16.2740    17.8510 hc         1 MOL       0.101700
    171 H80         -1.0310    16.3070    20.2620 hc         1 MOL       0.038367
    172 H81          0.4300    16.5570    19.2760 hc         1 MOL       0.038367
    173 H82         -0.3420    17.9390    20.0900 hc         1 MOL       0.038367
    174 H83         -3.1850    17.0370    19.5230 hc         1 MOL       0.038367
    175 H84         -2.6040    18.7090    19.3330 hc         1 MOL       0.038367
    176 H85         -3.4040    17.8850    17.9730 hc         1 MOL       0.038367
@<TRIPOS>BOND
     1     1     2 1   
     2     1     8 1   
     3     1    38 1   
     4     2     3 1   
     5     2     5 1   
     6     2    98 1   
     7     3     4 2   
     8     3     9 1   
     9     5     6 1   
    10     5     7 1   
    11     5    99 1   
    12     6    35 1   
    13     7   100 1   
    14     7   101 1   
    15     7   102 1   
    16     9    10 1   
    17     9    16 1   
    18    10    11 1   
    19    10    14 1   
    20    10   103 1   
    21    11    12 1   
    22    11    13 1   
    23    11   104 1   
    24    12   105 1   
    25    12   106 1   
    26    12   107 1   
    27    13   108 1   
    28    13   109 1   
    29    13   110 1   
    30    14    15 2   
    31    14    17 1   
    32    17    18 1   
    33    17    23 1   
    34    18    19 1   
    35    18    21 1   
    36    18   111 1   
    37    19    20 2   
    38    19    24 1   
    39    21    22 1   
    40    21   112 1   
    41    21   113 1   
    42    22    23 1   
    43    22   114 1   
    44    22   115 1   
    45    23   116 1   
    46    23   117 1   
    47    24    25 1   
    48    24    28 1   
    49    25    26 1   
    50    25   118 1   
    51    25   119 1   
    52    26    27 2   
    53    26    29 1   
    54    28   120 1   
    55    28   121 1   
    56    28   122 1   
    57    29    30 1   
    58    29    31 1   
    59    30   123 1   
    60    30   124 1   
    61    30   125 1   
    62    31    32 1   
    63    31    35 1   
    64    31   126 1   
    65    32    33 1   
    66    32    34 1   
    67    32   127 1   
    68    33   128 1   
    69    33   129 1   
    70    33   130 1   
    71    34   131 1   
    72    34   132 1   
    73    34   133 1   
    74    35    36 2   
    75    37    38 1   
    76    37    40 2   
    77    37    54 1   
    78    38    39 2   
    79    40    41 1   
    80    40    42 1   
    81    41    60 1   
    82    41    61 1   
    83    42    43 2   
    84    42    44 1   
    85    44    55 2   
    86    44    58 1   
    87    45    55 1   
    88    45    56 1   
    89    46    47 ar  
    90    46    56 ar  
    91    46    59 1   
    92    47    48 ar  
    93    47   134 1   
    94    48    49 1   
    95    48    50 ar  
    96    50    51 1   
    97    50    57 ar  
    98    51    52 2   
    99    51    62 1   
   100    53    54 2   
   101    53    57 1   
   102    54    55 1   
   103    56    57 ar  
   104    58   135 1   
   105    58   136 1   
   106    58   137 1   
   107    59   138 1   
   108    59   139 1   
   109    59   140 1   
   110    62    63 1   
   111    62    69 1   
   112    63    64 1   
   113    63    66 1   
   114    63   141 1   
   115    64    65 2   
   116    64    70 1   
   117    66    67 1   
   118    66    68 1   
   119    66   142 1   
   120    67    96 1   
   121    68   143 1   
   122    68   144 1   
   123    68   145 1   
   124    70    71 1   
   125    70    77 1   
   126    71    72 1   
   127    71    75 1   
   128    71   146 1   
   129    72    73 1   
   130    72    74 1   
   131    72   147 1   
   132    73   148 1   
   133    73   149 1   
   134    73   150 1   
   135    74   151 1   
   136    74   152 1   
   137    74   153 1   
   138    75    76 2   
   139    75    78 1   
   140    78    79 1   
   141    78    84 1   
   142    79    80 1   
   143    79    82 1   
   144    79   154 1   
   145    80    81 2   
   146    80    85 1   
   147    82    83 1   
   148    82   155 1   
   149    82   156 1   
   150    83    84 1   
   151    83   157 1   
   152    83   158 1   
   153    84   159 1   
   154    84   160 1   
   155    85    86 1   
   156    85    89 1   
   157    86    87 1   
   158    86   161 1   
   159    86   162 1   
   160    87    88 2   
   161    87    90 1   
   162    89   163 1   
   163    89   164 1   
   164    89   165 1   
   165    90    91 1   
   166    90    92 1   
   167    91   166 1   
   168    91   167 1   
   169    91   168 1   
   170    92    93 1   
   171    92    96 1   
   172    92   169 1   
   173    93    94 1   
   174    93    95 1   
   175    93   170 1   
   176    94   171 1   
   177    94   172 1   
   178    94   173 1   
   179    95   174 1   
   180    95   175 1   
   181    95   176 1   
   182    96    97 2   
@<TRIPOS>SUBSTRUCTURE
     1 MOL         1 TEMP              0 ****  ****    0 ROOT
