
                    3D
 Schrodinger Suite 2021-1.
 44 43  0  0  1  0            999 V2000
   -4.9610   22.0660    9.3730 N   0  3  0  0  0  0
   -5.8010   21.7130    8.1180 C   0  0  0  0  0  0
   -6.6080   22.9230    7.5980 C   0  0  0  0  0  0
   -7.6090   22.4180    6.4680 C   0  0  0  0  0  0
   -8.3480   23.6040    5.8560 N   0  3  0  0  0  0
   -9.8630   23.2750    5.7330 C   0  0  0  0  0  0
  -10.0860   21.7530    5.6350 C   0  0  0  0  0  0
  -11.5010   21.3450    6.1100 C   0  0  0  0  0  0
  -11.6460   21.2200    7.6310 C   0  0  0  0  0  0
  -12.1610   19.7480    7.9890 N   0  3  0  0  0  0
  -10.8480   19.0400    8.5600 C   0  0  0  0  0  0
  -10.4770   17.8190    7.6960 C   0  0  0  0  0  0
  -10.8590   17.9240    6.2400 C   0  0  0  0  0  0
  -10.9020   16.5740    5.4790 N   0  3  0  0  0  0
   -4.4513   21.2492    9.6782 H   0  0  0  0  0  0
   -4.3094   22.8036    9.1460 H   0  0  0  0  0  0
   -5.5745   22.3754   10.1132 H   0  0  0  0  0  0
   -6.4837   20.8974    8.3564 H   0  0  0  0  0  0
   -5.1406   21.3519    7.3296 H   0  0  0  0  0  0
   -5.9253   23.6600    7.1752 H   0  0  0  0  0  0
   -7.1773   23.3594    8.4187 H   0  0  0  0  0  0
   -8.3301   21.7268    6.9043 H   0  0  0  0  0  0
   -7.0474   21.8998    5.6907 H   0  0  0  0  0  0
   -7.9706   23.7990    4.9397 H   0  0  0  0  0  0
   -8.2267   24.4159    6.4444 H   0  0  0  0  0  0
  -10.2686   23.7592    4.8446 H   0  0  0  0  0  0
  -10.3907   23.6638    6.6039 H   0  0  0  0  0  0
   -9.3385   21.2374    6.2379 H   0  0  0  0  0  0
   -9.9430   21.4313    4.6034 H   0  0  0  0  0  0
  -11.7810   20.4013    5.6418 H   0  0  0  0  0  0
  -12.2290   22.0647    5.7358 H   0  0  0  0  0  0
  -12.3680   21.9542    7.9884 H   0  0  0  0  0  0
  -10.6786   21.3910    8.1032 H   0  0  0  0  0  0
  -12.4495   19.2807    7.1413 H   0  0  0  0  0  0
  -12.8534   19.8065    8.7220 H   0  0  0  0  0  0
  -11.0262   18.7180    9.5860 H   0  0  0  0  0  0
  -10.0219   19.7510    8.5574 H   0  0  0  0  0  0
  -10.9291   16.9241    8.1236 H   0  0  0  0  0  0
   -9.4058   17.6336    7.7751 H   0  0  0  0  0  0
  -10.1707   18.6013    5.7344 H   0  0  0  0  0  0
  -11.8277   18.4165    6.1559 H   0  0  0  0  0  0
  -11.1647   16.7372    4.5175 H   0  0  0  0  0  0
   -9.9902   16.1406    5.5095 H   0  0  0  0  0  0
  -11.5791   15.9634    5.9135 H   0  0  0  0  0  0
  1  2  1  0  0  0
  1 15  1  0  0  0
  1 16  1  0  0  0
  1 17  1  0  0  0
  2  3  1  0  0  0
  2 18  1  0  0  0
  2 19  1  0  0  0
  3  4  1  0  0  0
  3 20  1  0  0  0
  3 21  1  0  0  0
  4  5  1  0  0  0
  4 22  1  0  0  0
  4 23  1  0  0  0
  5  6  1  0  0  0
  5 24  1  0  0  0
  5 25  1  0  0  0
  6  7  1  0  0  0
  6 26  1  0  0  0
  6 27  1  0  0  0
  7  8  1  0  0  0
  7 28  1  0  0  0
  7 29  1  0  0  0
  8  9  1  0  0  0
  8 30  1  0  0  0
  8 31  1  0  0  0
  9 10  1  0  0  0
  9 32  1  0  0  0
  9 33  1  0  0  0
 10 11  1  0  0  0
 10 34  1  0  0  0
 10 35  1  0  0  0
 11 12  1  0  0  0
 11 36  1  0  0  0
 11 37  1  0  0  0
 12 13  1  0  0  0
 12 38  1  0  0  0
 12 39  1  0  0  0
 13 14  1  0  0  0
 13 40  1  0  0  0
 13 41  1  0  0  0
 14 42  1  0  0  0
 14 43  1  0  0  0
 14 44  1  0  0  0
M  CHG  4   1   1   5   1  10   1  14   1
M  END
> <s_pdb_PDB_format_version>
3.0

> <b_ppw_prepared>
1

> <s_ppw_prepared_with_version>
2021-1

> <s_ppw_het_states>
eJztkEEOgzAMBL9icY6qbEgh8BXED1BvPSH+jh3W0B/0Eg7MBKzsynuHbpZFHwTBGmRJQaKxJzP55v+B55Es5EQichDwL34l/E5kmzGz2PQk91Rlpio9Wjk8LUaqslCVE9V4NzHBTy14ZBUPreLN4qukoqP7EeTz3bbrXSu3VbVVtVX9aVXrcQJcXwML

$$$$
