@<TRIPOS>MOLECULE
MOL
   44    43     1     0     0
SMALL
bcc


@<TRIPOS>ATOM
      1 N1          -4.9610    22.0660     9.3730 nz         1 MOL      -0.837600
      2 C1          -5.8010    21.7130     8.1180 c3         1 MOL       0.105800
      3 C2          -6.6080    22.9230     7.5980 c3         1 MOL      -0.138400
      4 C3          -7.6090    22.4180     6.4680 c3         1 MOL       0.108800
      5 N2          -8.3480    23.6040     5.8560 ny         1 MOL      -0.764000
      6 C4          -9.8630    23.2750     5.7330 c3         1 MOL       0.107800
      7 C5         -10.0860    21.7530     5.6350 c3         1 MOL      -0.106400
      8 C6         -11.5010    21.3450     6.1100 c3         1 MOL      -0.106400
      9 C7         -11.6460    21.2200     7.6310 c3         1 MOL       0.107800
     10 N3         -12.1610    19.7480     7.9890 ny         1 MOL      -0.764000
     11 C8         -10.8480    19.0400     8.5600 c3         1 MOL       0.108800
     12 C9         -10.4770    17.8190     7.6960 c3         1 MOL      -0.138400
     13 C10        -10.8590    17.9240     6.2400 c3         1 MOL       0.105800
     14 N4         -10.9020    16.5740     5.4790 nz         1 MOL      -0.837600
     15 H1          -4.4510    21.2490     9.6780 hn         1 MOL       0.485467
     16 H2          -4.3090    22.8040     9.1460 hn         1 MOL       0.485467
     17 H3          -5.5740    22.3750    10.1130 hn         1 MOL       0.485467
     18 H4          -6.4840    20.8970     8.3560 hx         1 MOL       0.131700
     19 H5          -5.1410    21.3520     7.3300 hx         1 MOL       0.131700
     20 H6          -5.9250    23.6600     7.1750 hc         1 MOL       0.098700
     21 H7          -7.1770    23.3590     8.4190 hc         1 MOL       0.098700
     22 H8          -8.3300    21.7270     6.9040 hx         1 MOL       0.127700
     23 H9          -7.0470    21.9000     5.6910 hx         1 MOL       0.127700
     24 H10         -7.9710    23.7990     4.9400 hn         1 MOL       0.464800
     25 H11         -8.2270    24.4160     6.4440 hn         1 MOL       0.464800
     26 H12        -10.2690    23.7590     4.8450 hx         1 MOL       0.122700
     27 H13        -10.3910    23.6640     6.6040 hx         1 MOL       0.122700
     28 H14         -9.3380    21.2370     6.2380 hc         1 MOL       0.087700
     29 H15         -9.9430    21.4310     4.6030 hc         1 MOL       0.087700
     30 H16        -11.7810    20.4010     5.6420 hc         1 MOL       0.087700
     31 H17        -12.2290    22.0650     5.7360 hc         1 MOL       0.087700
     32 H18        -12.3680    21.9540     7.9880 hx         1 MOL       0.122700
     33 H19        -10.6790    21.3910     8.1030 hx         1 MOL       0.122700
     34 H20        -12.4500    19.2810     7.1410 hn         1 MOL       0.464800
     35 H21        -12.8530    19.8060     8.7220 hn         1 MOL       0.464800
     36 H22        -11.0260    18.7180     9.5860 hx         1 MOL       0.127700
     37 H23        -10.0220    19.7510     8.5570 hx         1 MOL       0.127700
     38 H24        -10.9290    16.9240     8.1240 hc         1 MOL       0.098700
     39 H25         -9.4060    17.6340     7.7750 hc         1 MOL       0.098700
     40 H26        -10.1710    18.6010     5.7340 hx         1 MOL       0.131700
     41 H27        -11.8280    18.4160     6.1560 hx         1 MOL       0.131700
     42 H28        -11.1650    16.7370     4.5180 hn         1 MOL       0.485467
     43 H29         -9.9900    16.1410     5.5100 hn         1 MOL       0.485467
     44 H30        -11.5790    15.9630     5.9130 hn         1 MOL       0.485467
@<TRIPOS>BOND
     1     1     2 1   
     2     1    15 1   
     3     1    16 1   
     4     1    17 1   
     5     2     3 1   
     6     2    18 1   
     7     2    19 1   
     8     3     4 1   
     9     3    20 1   
    10     3    21 1   
    11     4     5 1   
    12     4    22 1   
    13     4    23 1   
    14     5     6 1   
    15     5    24 1   
    16     5    25 1   
    17     6     7 1   
    18     6    26 1   
    19     6    27 1   
    20     7     8 1   
    21     7    28 1   
    22     7    29 1   
    23     8     9 1   
    24     8    30 1   
    25     8    31 1   
    26     9    10 1   
    27     9    32 1   
    28     9    33 1   
    29    10    11 1   
    30    10    34 1   
    31    10    35 1   
    32    11    12 1   
    33    11    36 1   
    34    11    37 1   
    35    12    13 1   
    36    12    38 1   
    37    12    39 1   
    38    13    14 1   
    39    13    40 1   
    40    13    41 1   
    41    14    42 1   
    42    14    43 1   
    43    14    44 1   
@<TRIPOS>SUBSTRUCTURE
     1 MOL         1 TEMP              0 ****  ****    0 ROOT
