
                    3D
 Schrodinger Suite 2021-1.
 58 59  0  0  1  0            999 V2000
   11.5100   17.5570   17.7950 N   0  0  0  0  0  0
   10.0760   15.8260   17.7750 N   0  3  0  0  0  0
   10.7530   16.7400   17.1650 C   0  0  0  0  0  0
   10.6240   16.7400   15.9120 N   0  0  0  0  0  0
   11.1090   17.5810   14.9110 C   0  0  0  0  0  0
    9.8470   18.2520   14.3270 C   0  0  0  0  0  0
    8.7080   18.0280   14.8250 O   0  0  0  0  0  0
   10.0570   18.9980   13.3000 N   0  0  0  0  0  0
    9.0450   19.6460   12.6100 C   0  0  0  0  0  0
    7.1080   20.4270   11.7750 N   0  0  0  0  0  0
    8.1030   20.8670   10.9990 C   0  0  0  0  0  0
    7.6940   19.6460   12.7830 C   0  0  0  0  0  0
    5.6370   20.6000   11.7480 C   0  0  0  0  0  0
    9.3310   20.4030   11.4960 N   0  0  0  0  0  0
    7.8790   21.7230    9.8060 C   0  0  0  0  0  0
    6.7740   22.0720    9.4210 O   0  0  0  0  0  0
    8.9940   22.0800    9.1890 N   0  0  0  0  0  0
    8.9970   22.9470    8.0420 C   0  0  0  0  0  0
   10.0350   23.1320    7.0940 C   0  0  0  0  0  0
    9.6000   24.0510    6.1660 C   0  0  0  0  0  0
    7.9850   23.7920    7.6840 C   0  0  0  0  0  0
    8.3070   24.4550    6.5840 N   0  0  0  0  0  0
    7.3770   25.3820    6.0070 C   0  0  0  0  0  0
   10.2180   24.6870    5.0120 C   0  0  0  0  0  0
    9.6820   25.6130    4.3560 O   0  0  0  0  0  0
   11.4620   24.3250    4.7210 N   0  0  0  0  0  0
   12.1690   25.0320    3.5800 C   0  0  0  0  0  0
   12.4640   24.1650    2.4460 C   0  0  0  0  0  0
   13.7380   24.6790    1.7300 C   0  0  0  0  0  0
   13.6150   25.8530    1.1600 N   0  3  0  0  0  0
   14.8170   23.9840    1.7370 N   0  0  0  0  0  0
   12.0265   18.2609   17.2872 H   0  0  0  0  0  0
   11.5910   17.4979   18.8000 H   0  0  0  0  0  0
    9.4876   15.1968   17.2477 H   0  0  0  0  0  0
   10.1346   15.7399   18.7796 H   0  0  0  0  0  0
   10.0755   16.0219   15.4608 H   0  0  0  0  0  0
   11.5899   16.9818   14.1378 H   0  0  0  0  0  0
   11.7487   18.3422   15.3576 H   0  0  0  0  0  0
   10.9978   19.1348   12.9591 H   0  0  0  0  0  0
    7.2545   19.0960   13.6020 H   0  0  0  0  0  0
    5.1918   20.0604   12.5839 H   0  0  0  0  0  0
    5.3937   21.6594   11.8292 H   0  0  0  0  0  0
    5.2416   20.2077   10.8111 H   0  0  0  0  0  0
    9.8856   21.7413    9.5211 H   0  0  0  0  0  0
   10.9613   22.5858    7.1940 H   0  0  0  0  0  0
    7.0859   23.8408    8.2803 H   0  0  0  0  0  0
    6.4786   25.4269    6.6226 H   0  0  0  0  0  0
    7.8325   26.3710    5.9573 H   0  0  0  0  0  0
    7.1121   25.0536    5.0020 H   0  0  0  0  0  0
   11.9136   23.5958    5.2543 H   0  0  0  0  0  0
   13.0949   25.4747    3.9472 H   0  0  0  0  0  0
   11.5621   25.8728    3.2441 H   0  0  0  0  0  0
   11.6254   24.1797    1.7499 H   0  0  0  0  0  0
   12.6321   23.1481    2.8005 H   0  0  0  0  0  0
   14.3987   26.2617    0.6712 H   0  0  0  0  0  0
   12.7365   26.3489    1.2096 H   0  0  0  0  0  0
   15.6423   24.3279    1.2672 H   0  0  0  0  0  0
   14.8408   23.0931    2.2123 H   0  0  0  0  0  0
  1  3  1  0  0  0
  1 32  1  0  0  0
  1 33  1  0  0  0
  2  3  2  0  0  0
  2 34  1  0  0  0
  2 35  1  0  0  0
  3  4  1  0  0  0
  4  5  1  0  0  0
  4 36  1  0  0  0
  5  6  1  0  0  0
  5 37  1  0  0  0
  5 38  1  0  0  0
  6  7  2  0  0  0
  6  8  1  0  0  0
  8  9  1  0  0  0
  8 39  1  0  0  0
  9 12  2  0  0  0
  9 14  1  0  0  0
 10 11  1  0  0  0
 10 12  1  0  0  0
 10 13  1  0  0  0
 11 14  2  0  0  0
 11 15  1  0  0  0
 12 40  1  0  0  0
 13 41  1  0  0  0
 13 42  1  0  0  0
 13 43  1  0  0  0
 15 16  2  0  0  0
 15 17  1  0  0  0
 17 18  1  0  0  0
 17 44  1  0  0  0
 18 19  1  0  0  0
 18 21  2  0  0  0
 19 20  2  0  0  0
 19 45  1  0  0  0
 20 22  1  0  0  0
 20 24  1  0  0  0
 21 22  1  0  0  0
 21 46  1  0  0  0
 22 23  1  0  0  0
 23 47  1  0  0  0
 23 48  1  0  0  0
 23 49  1  0  0  0
 24 25  2  0  0  0
 24 26  1  0  0  0
 26 27  1  0  0  0
 26 50  1  0  0  0
 27 28  1  0  0  0
 27 51  1  0  0  0
 27 52  1  0  0  0
 28 29  1  0  0  0
 28 53  1  0  0  0
 28 54  1  0  0  0
 29 30  2  0  0  0
 29 31  1  0  0  0
 30 55  1  0  0  0
 30 56  1  0  0  0
 31 57  1  0  0  0
 31 58  1  0  0  0
M  CHG  2   2   1  30   1
M  END
> <s_pdb_PDB_format_version>
3.0

> <b_ppw_prepared>
1

> <s_ppw_prepared_with_version>
2021-1

> <s_ppw_het_states>
eJxNkk2OwjAUg69SZd0Z5Tnp31wF9QZodrNC3H2eg11gge00fHItHiXKz3TLT8xTPefphnkKalPu0kW6SjfpLj2kUW1MDNiYGYaGqWFsmBsGh8kwGVdXk2EyTIbJMBkmw2SY3KpfepDpuEfTKYaFVuk6TV1kU1fZ1E130+46TT1kqdANeuO4Gyd7B3wGdxlXun4/gksMs/oJw+YnNK4yzPERuCY8NDeGx4YbjOCi4/71hK9y7cReiwEMXoUGrkMD16GB69C0qwHDGCTTV/3O80eJnn/XVyhtT5+2tixRelMivvRDqeI5T79/9/vr+zyf//PLnKw=

$$$$
