@<TRIPOS>MOLECULE
MOL
   58    59     1     0     0
SMALL
bcc


@<TRIPOS>ATOM
      1 N1          11.5100    17.5570    17.7950 nv         1 MOL      -0.502100
      2 N2          10.0760    15.8260    17.7750 nv         1 MOL      -0.486200
      3 C1          10.7530    16.7400    17.1650 cz         1 MOL       0.525300
      4 N3          10.6240    16.7400    15.9120 nu         1 MOL      -0.380200
      5 C2          11.1090    17.5810    14.9110 c3         1 MOL      -0.051700
      6 C3           9.8470    18.2520    14.3270 c          1 MOL       0.630100
      7 O1           8.7080    18.0280    14.8250 o          1 MOL      -0.635100
      8 N4          10.0570    18.9980    13.3000 ns         1 MOL      -0.474400
      9 C4           9.0450    19.6460    12.6100 cc         1 MOL       0.360200
     10 N5           7.1080    20.4270    11.7750 na         1 MOL      -0.131900
     11 C5           8.1030    20.8670    10.9990 cd         1 MOL       0.357000
     12 C6           7.6940    19.6460    12.7830 cd         1 MOL      -0.203600
     13 C7           5.6370    20.6000    11.7480 c3         1 MOL       0.011600
     14 N6           9.3310    20.4030    11.4960 nc         1 MOL      -0.663000
     15 C8           7.8790    21.7230     9.8060 c          1 MOL       0.609600
     16 O2           6.7740    22.0720     9.4210 o          1 MOL      -0.603100
     17 N7           8.9940    22.0800     9.1890 ns         1 MOL      -0.418100
     18 C9           8.9970    22.9470     8.0420 cc         1 MOL      -0.036400
     19 C10         10.0350    23.1320     7.0940 cc         1 MOL      -0.155000
     20 C11          9.6000    24.0510     6.1660 cd         1 MOL      -0.213900
     21 C12          7.9850    23.7920     7.6840 cd         1 MOL      -0.106300
     22 N8           8.3070    24.4550     6.5840 na         1 MOL       0.003900
     23 C13          7.3770    25.3820     6.0070 c3         1 MOL       0.013600
     24 C14         10.2180    24.6870     5.0120 c          1 MOL       0.733700
     25 O3           9.6820    25.6130     4.3560 o          1 MOL      -0.689100
     26 N9          11.4620    24.3250     4.7210 ns         1 MOL      -0.573900
     27 C15         12.1690    25.0320     3.5800 c3         1 MOL       0.110000
     28 C16         12.4640    24.1650     2.4460 c3         1 MOL      -0.192700
     29 C17         13.7380    24.6790     1.7300 c2         1 MOL       0.448800
     30 N10         13.6150    25.8530     1.1600 nv         1 MOL      -0.467600
     31 N11         14.8170    23.9840     1.7370 nv         1 MOL      -0.451700
     32 H1          12.0270    18.2610    17.2870 hn         1 MOL       0.331450
     33 H2          11.5910    17.4980    18.8000 hn         1 MOL       0.331450
     34 H3           9.4880    15.1970    17.2480 hn         1 MOL       0.331450
     35 H4          10.1350    15.7400    18.7800 hn         1 MOL       0.331450
     36 H5          10.0750    16.0220    15.4610 hn         1 MOL       0.322700
     37 H6          11.5900    16.9820    14.1380 h1         1 MOL       0.107200
     38 H7          11.7490    18.3420    15.3580 h1         1 MOL       0.107200
     39 H8          10.9980    19.1350    12.9590 hn         1 MOL       0.345500
     40 H9           7.2550    19.0960    13.6020 h4         1 MOL       0.216000
     41 H10          5.1920    20.0600    12.5840 h1         1 MOL       0.079700
     42 H11          5.3940    21.6590    11.8290 h1         1 MOL       0.079700
     43 H12          5.2420    20.2080    10.8110 h1         1 MOL       0.079700
     44 H13          9.8860    21.7410     9.5210 hn         1 MOL       0.346500
     45 H14         10.9610    22.5860     7.1940 ha         1 MOL       0.153000
     46 H15          7.0860    23.8410     8.2800 h4         1 MOL       0.218000
     47 H16          6.4790    25.4270     6.6230 h1         1 MOL       0.072033
     48 H17          7.8320    26.3710     5.9570 h1         1 MOL       0.072033
     49 H18          7.1120    25.0540     5.0020 h1         1 MOL       0.072033
     50 H19         11.9140    23.5960     5.2540 hn         1 MOL       0.337500
     51 H20         13.0950    25.4750     3.9470 h1         1 MOL       0.073700
     52 H21         11.5620    25.8730     3.2440 h1         1 MOL       0.073700
     53 H22         11.6250    24.1800     1.7500 hc         1 MOL       0.109200
     54 H23         12.6320    23.1480     2.8000 hc         1 MOL       0.109200
     55 H24         14.3990    26.2620     0.6710 hn         1 MOL       0.333450
     56 H25         12.7360    26.3490     1.2100 hn         1 MOL       0.333450
     57 H26         15.6420    24.3280     1.2670 hn         1 MOL       0.333450
     58 H27         14.8410    23.0930     2.2120 hn         1 MOL       0.333450
@<TRIPOS>BOND
     1     1     3 2   
     2     1    32 1   
     3     1    33 1   
     4     2     3 1   
     5     2    34 1   
     6     2    35 1   
     7     3     4 1   
     8     4     5 1   
     9     4    36 1   
    10     5     6 1   
    11     5    37 1   
    12     5    38 1   
    13     6     7 2   
    14     6     8 1   
    15     8     9 1   
    16     8    39 1   
    17     9    12 2   
    18     9    14 1   
    19    10    11 1   
    20    10    12 1   
    21    10    13 1   
    22    11    14 2   
    23    11    15 1   
    24    12    40 1   
    25    13    41 1   
    26    13    42 1   
    27    13    43 1   
    28    15    16 2   
    29    15    17 1   
    30    17    18 1   
    31    17    44 1   
    32    18    19 1   
    33    18    21 2   
    34    19    20 2   
    35    19    45 1   
    36    20    22 1   
    37    20    24 1   
    38    21    22 1   
    39    21    46 1   
    40    22    23 1   
    41    23    47 1   
    42    23    48 1   
    43    23    49 1   
    44    24    25 2   
    45    24    26 1   
    46    26    27 1   
    47    26    50 1   
    48    27    28 1   
    49    27    51 1   
    50    27    52 1   
    51    28    29 1   
    52    28    53 1   
    53    28    54 1   
    54    29    30 2   
    55    29    31 1   
    56    30    55 1   
    57    30    56 1   
    58    31    57 1   
    59    31    58 1   
@<TRIPOS>SUBSTRUCTURE
     1 MOL         1 TEMP              0 ****  ****    0 ROOT
