
                    3D
 Schrodinger Suite 2021-1.
 71 77  0  0  1  0            999 V2000
   -8.9070   -4.8720   -0.4300 N   0  3  0  0  0  0
   -7.8250   -4.6650   -1.4190 C   0  0  1  0  0  0
   -8.4150   -4.6770   -2.8740 C   0  0  2  0  0  0
   -8.8580   -5.9920   -3.2050 O   0  0  0  0  0  0
   -7.3850   -4.2290   -3.9540 C   0  0  1  0  0  0
   -8.0550   -4.1210   -5.2080 O   0  0  0  0  0  0
   -6.7550   -2.8610   -3.5600 C   0  0  2  0  0  0
   -5.6570   -2.3780   -4.5240 C   0  0  0  0  0  0
   -5.9400   -1.0830   -5.0320 O   0  0  0  0  0  0
   -6.1490   -3.0050   -2.2370 O   0  0  0  0  0  0
   -7.0520   -3.3330   -1.1230 C   0  0  2  0  0  0
   -6.2830   -3.5060    0.0960 O   0  0  0  0  0  0
   -5.4230   -2.4200    0.5500 C   0  0  2  0  0  0
   -4.0090   -2.9930    0.7460 C   0  0  0  0  0  0
   -3.3360   -2.1220    1.8230 C   0  0  2  0  0  0
   -4.4610   -1.2830    2.5210 C   0  0  1  0  0  0
   -3.9700    0.1670    2.2980 C   0  0  0  0  0  0
   -4.6030    1.3540    2.7180 C   0  0  0  0  0  0
   -4.0330    2.6060    2.4300 C   0  0  0  0  0  0
   -4.6610    3.7960    2.8400 C   0  0  0  0  0  0
   -4.0790    5.0390    2.5430 C   0  0  0  0  0  0
   -2.8700    5.1180    1.8410 C   0  0  0  0  0  0
   -2.2060    3.9480    1.4110 C   0  0  0  0  0  0
   -2.7620    2.6770    1.6890 C   0  0  0  0  0  0
   -2.1310    1.4810    1.2750 C   0  0  0  0  0  0
   -2.7600    0.2240    1.5910 C   0  0  0  0  0  0
   -2.2840   -1.1370    1.2530 C   0  0  0  0  0  0
   -1.2550   -1.4320    0.6410 O   0  0  0  0  0  0
   -5.8620   -1.7680    1.9220 C   0  0  1  0  0  0
   -6.9700   -0.5750    1.7700 C   0  0  0  0  0  0
   -6.9600    0.3260    0.6570 C   0  0  0  0  0  0
   -7.9100    1.3560    0.5420 C   0  0  0  0  0  0
   -8.8940    1.5150    1.5330 C   0  0  0  0  0  0
   -8.9420    0.6590    2.6320 C   0  0  0  0  0  0
   -7.9970   -0.3850    2.7620 C   0  0  0  0  0  0
   -8.0940   -1.3170    3.9890 C   0  0  0  0  0  0
   -7.7270   -2.7910    3.6980 C   0  0  0  0  0  0
   -6.3980   -2.9310    2.9080 C   0  0  0  0  0  0
   -5.7600   -3.9750    3.0650 O   0  0  0  0  0  0
   -8.5181   -4.8627    0.5021 H   0  0  0  0  0  0
   -9.5893   -4.1324   -0.5170 H   0  0  0  0  0  0
   -9.3528   -5.7623   -0.5994 H   0  0  0  0  0  0
   -7.1214   -5.4928   -1.3309 H   0  0  0  0  0  0
   -9.2706   -4.0026   -2.9082 H   0  0  0  0  0  0
   -9.2178   -5.9944   -4.0950 H   0  0  0  0  0  0
   -6.5971   -4.9782   -4.0313 H   0  0  0  0  0  0
   -7.4300   -3.8452   -5.8825 H   0  0  0  0  0  0
   -7.5416   -2.1081   -3.5109 H   0  0  0  0  0  0
   -5.5667   -3.0808   -5.3523 H   0  0  0  0  0  0
   -4.6991   -2.3623   -4.0041 H   0  0  0  0  0  0
   -5.2380   -0.8121   -5.6281 H   0  0  0  0  0  0
   -7.7677   -2.5222   -0.9870 H   0  0  0  0  0  0
   -5.3907   -1.6467   -0.2175 H   0  0  0  0  0  0
   -3.4519   -2.9099   -0.1872 H   0  0  0  0  0  0
   -4.0808   -4.0202    1.1036 H   0  0  0  0  0  0
   -2.8600   -2.7678    2.5609 H   0  0  0  0  0  0
   -4.4448   -1.4971    3.5896 H   0  0  0  0  0  0
   -5.5328    1.3056    3.2653 H   0  0  0  0  0  0
   -5.5928    3.7550    3.3845 H   0  0  0  0  0  0
   -4.5643    5.9513    2.8569 H   0  0  0  0  0  0
   -2.4345    6.0818    1.6224 H   0  0  0  0  0  0
   -1.2742    4.0237    0.8702 H   0  0  0  0  0  0
   -1.1973    1.5224    0.7339 H   0  0  0  0  0  0
   -6.2125    0.2217   -0.1155 H   0  0  0  0  0  0
   -7.8829    2.0234   -0.3067 H   0  0  0  0  0  0
   -9.6234    2.3069    1.4476 H   0  0  0  0  0  0
   -9.7024    0.7921    3.3873 H   0  0  0  0  0  0
   -9.1027   -1.2702    4.3993 H   0  0  0  0  0  0
   -7.4533   -0.9354    4.7840 H   0  0  0  0  0  0
   -8.5339   -3.2610    3.1357 H   0  0  0  0  0  0
   -7.6489   -3.3372    4.6380 H   0  0  0  0  0  0
  1  2  1  0  0  0
  1 40  1  0  0  0
  1 41  1  0  0  0
  1 42  1  0  0  0
  2  3  1  0  0  0
  2 11  1  0  0  0
  2 43  1  0  0  0
  3  4  1  0  0  0
  3  5  1  0  0  0
  3 44  1  0  0  0
  4 45  1  0  0  0
  5  6  1  0  0  0
  5  7  1  0  0  0
  5 46  1  0  0  0
  6 47  1  0  0  0
  7  8  1  0  0  0
  7 10  1  0  0  0
  7 48  1  0  0  0
  8  9  1  0  0  0
  8 49  1  0  0  0
  8 50  1  0  0  0
  9 51  1  0  0  0
 10 11  1  0  0  0
 11 12  1  0  0  0
 11 52  1  0  0  0
 12 13  1  0  0  0
 13 14  1  0  0  0
 13 29  1  0  0  0
 13 53  1  0  0  0
 14 15  1  0  0  0
 14 54  1  0  0  0
 14 55  1  0  0  0
 15 16  1  0  0  0
 15 27  1  0  0  0
 15 56  1  0  0  0
 16 17  1  0  0  0
 16 29  1  0  0  0
 16 57  1  0  0  0
 17 18  2  0  0  0
 17 26  1  0  0  0
 18 19  1  0  0  0
 18 58  1  0  0  0
 19 20  2  0  0  0
 19 24  1  0  0  0
 20 21  1  0  0  0
 20 59  1  0  0  0
 21 22  2  0  0  0
 21 60  1  0  0  0
 22 23  1  0  0  0
 22 61  1  0  0  0
 23 24  2  0  0  0
 23 62  1  0  0  0
 24 25  1  0  0  0
 25 26  2  0  0  0
 25 63  1  0  0  0
 26 27  1  0  0  0
 27 28  2  0  0  0
 29 30  1  0  0  0
 29 38  1  0  0  0
 30 31  2  0  0  0
 30 35  1  0  0  0
 31 32  1  0  0  0
 31 64  1  0  0  0
 32 33  2  0  0  0
 32 65  1  0  0  0
 33 34  1  0  0  0
 33 66  1  0  0  0
 34 35  2  0  0  0
 34 67  1  0  0  0
 35 36  1  0  0  0
 36 37  1  0  0  0
 36 68  1  0  0  0
 36 69  1  0  0  0
 37 38  1  0  0  0
 37 70  1  0  0  0
 37 71  1  0  0  0
 38 39  2  0  0  0
M  CHG  1   1   1
M  END
> <i_pdb_PDB_Model>
1

> <s_pdb_PDB_format_version>
3.0

> <b_ppw_prepared>
1

> <s_ppw_prepared_with_version>
2021-1

> <s_ppw_het_states>
eJztk0GOwjAMRa9Ssa5G9XdogasgboBmNyvE3YlT/6T72Yw0nwX+seDVcvNeJzvdpnv92DzZY57umKclqmctWc9Z16xb1kvWa1ZbGIyBSCPTCDVSjVgj1wg2kkEySAbJIBkkg2SQDJJBMkh2kp1k72sg2Ul2kp1kJ9lJ9kaOFHvFWK2PaNx47ZURzxlrXUfcMtZ6GTF2bfkSrhlbj+gW+PgWOEAL5XBAB0SXU7SwHg7gJK17PAxAdOtE4AEdELP3n9UQrxT9wHFat9/HWCDyZy30Hfr+H/DFg1NHiIeCF6BPHQGcLSZ2rrAduNvoxl1APxAdXedGI8QFAW+K9xdZ9v+AN8a5gwjOcSKMh9YQFwdxcexrKWttvN7z9P3zfO7f7UZJVakqVaWqVJWqUlWqSlWp+u9UXaSqVJWqf0TVrcSzpKpUlapSVapKVakqVaWqVJWqUlWqSlWpKlWlqlT9vaqP9wcndqBJ

$$$$
