@<TRIPOS>MOLECULE
MOL
   71    77     1     0     0
SMALL
bcc


@<TRIPOS>ATOM
      1 N1          -8.9070    -4.8720    -0.4300 nz         1 MOL      -0.815600
      2 C1          -7.8250    -4.6650    -1.4190 c3         1 MOL       0.077500
      3 C2          -8.4150    -4.6770    -2.8740 c3         1 MOL       0.129100
      4 O1          -8.8580    -5.9920    -3.2050 oh         1 MOL      -0.622800
      5 C3          -7.3850    -4.2290    -3.9540 c3         1 MOL       0.098100
      6 O2          -8.0550    -4.1210    -5.2080 oh         1 MOL      -0.604800
      7 C4          -6.7550    -2.8610    -3.5600 c3         1 MOL       0.066100
      8 C5          -5.6570    -2.3780    -4.5240 c3         1 MOL       0.130400
      9 O3          -5.9400    -1.0830    -5.0320 oh         1 MOL      -0.594800
     10 O4          -6.1490    -3.0050    -2.2370 os         1 MOL      -0.410600
     11 C6          -7.0520    -3.3330    -1.1230 c3         1 MOL       0.330900
     12 O5          -6.2830    -3.5060     0.0960 os         1 MOL      -0.413600
     13 C7          -5.4230    -2.4200     0.5500 c3         1 MOL       0.160100
     14 C8          -4.0090    -2.9930     0.7460 c3         1 MOL      -0.068400
     15 C9          -3.3360    -2.1220     1.8230 c3         1 MOL      -0.173700
     16 C10         -4.4610    -1.2830     2.5210 c3         1 MOL       0.002600
     17 C11         -3.9700     0.1670     2.2980 ca         1 MOL      -0.075300
     18 C12         -4.6030     1.3540     2.7180 ca         1 MOL      -0.101000
     19 C13         -4.0330     2.6060     2.4300 ca         1 MOL      -0.017000
     20 C14         -4.6610     3.7960     2.8400 ca         1 MOL      -0.129000
     21 C15         -4.0790     5.0390     2.5430 ca         1 MOL      -0.104000
     22 C16         -2.8700     5.1180     1.8410 ca         1 MOL      -0.120000
     23 C17         -2.2060     3.9480     1.4110 ca         1 MOL      -0.106000
     24 C18         -2.7620     2.6770     1.6890 ca         1 MOL      -0.055000
     25 C19         -2.1310     1.4810     1.2750 ca         1 MOL      -0.020000
     26 C20         -2.7600     0.2240     1.5910 ca         1 MOL      -0.190600
     27 C21         -2.2840    -1.1370     1.2530 c          1 MOL       0.586700
     28 O6          -1.2550    -1.4320     0.6410 o          1 MOL      -0.499100
     29 C22         -5.8620    -1.7680     1.9220 c3         1 MOL      -0.113700
     30 C23         -6.9700    -0.5750     1.7700 ca         1 MOL      -0.092300
     31 C24         -6.9600     0.3260     0.6570 ca         1 MOL      -0.128000
     32 C25         -7.9100     1.3560     0.5420 ca         1 MOL      -0.129000
     33 C26         -8.8940     1.5150     1.5330 ca         1 MOL      -0.109000
     34 C27         -8.9420     0.6590     2.6320 ca         1 MOL      -0.121000
     35 C28         -7.9970    -0.3850     2.7620 ca         1 MOL      -0.085300
     36 C29         -8.0940    -1.3170     3.9890 c3         1 MOL      -0.041100
     37 C30         -7.7270    -2.7910     3.6980 c3         1 MOL      -0.183400
     38 C31         -6.3980    -2.9310     2.9080 c          1 MOL       0.623100
     39 O7          -5.7600    -3.9750     3.0650 o          1 MOL      -0.622100
     40 H1          -8.5180    -4.8630     0.5020 hn         1 MOL       0.472800
     41 H2          -9.5890    -4.1320    -0.5170 hn         1 MOL       0.472800
     42 H3          -9.3530    -5.7620    -0.5990 hn         1 MOL       0.472800
     43 H4          -7.1210    -5.4930    -1.3310 hx         1 MOL       0.140700
     44 H5          -9.2710    -4.0030    -2.9080 h1         1 MOL       0.074700
     45 H6          -9.2180    -5.9940    -4.0950 ho         1 MOL       0.465000
     46 H7          -6.5970    -4.9780    -4.0310 h1         1 MOL       0.075700
     47 H8          -7.4300    -3.8450    -5.8830 ho         1 MOL       0.455000
     48 H9          -7.5420    -2.1080    -3.5110 h1         1 MOL       0.065700
     49 H10         -5.5670    -3.0810    -5.3520 h1         1 MOL       0.078200
     50 H11         -4.6990    -2.3620    -4.0040 h1         1 MOL       0.078200
     51 H12         -5.2380    -0.8120    -5.6280 ho         1 MOL       0.418000
     52 H13         -7.7680    -2.5220    -0.9870 h2         1 MOL       0.076700
     53 H14         -5.3910    -1.6470    -0.2170 h1         1 MOL       0.087700
     54 H15         -3.4520    -2.9100    -0.1870 hc         1 MOL       0.079700
     55 H16         -4.0810    -4.0200     1.1040 hc         1 MOL       0.079700
     56 H17         -2.8600    -2.7680     2.5610 hc         1 MOL       0.097700
     57 H18         -4.4450    -1.4970     3.5900 hc         1 MOL       0.075700
     58 H19         -5.5330     1.3060     3.2650 ha         1 MOL       0.140000
     59 H20         -5.5930     3.7550     3.3850 ha         1 MOL       0.136000
     60 H21         -4.5640     5.9510     2.8570 ha         1 MOL       0.143000
     61 H22         -2.4340     6.0820     1.6220 ha         1 MOL       0.146000
     62 H23         -1.2740     4.0240     0.8700 ha         1 MOL       0.145000
     63 H24         -1.1970     1.5220     0.7340 ha         1 MOL       0.160000
     64 H25         -6.2130     0.2220    -0.1160 ha         1 MOL       0.142000
     65 H26         -7.8830     2.0230    -0.3070 ha         1 MOL       0.142000
     66 H27         -9.6230     2.3070     1.4480 ha         1 MOL       0.151000
     67 H28         -9.7020     0.7920     3.3870 ha         1 MOL       0.148000
     68 H29         -9.1030    -1.2700     4.3990 hc         1 MOL       0.072700
     69 H30         -7.4530    -0.9350     4.7840 hc         1 MOL       0.072700
     70 H31         -8.5340    -3.2610     3.1360 hc         1 MOL       0.087700
     71 H32         -7.6490    -3.3370     4.6380 hc         1 MOL       0.087700
@<TRIPOS>BOND
     1     1     2 1   
     2     1    40 1   
     3     1    41 1   
     4     1    42 1   
     5     2     3 1   
     6     2    11 1   
     7     2    43 1   
     8     3     4 1   
     9     3     5 1   
    10     3    44 1   
    11     4    45 1   
    12     5     6 1   
    13     5     7 1   
    14     5    46 1   
    15     6    47 1   
    16     7     8 1   
    17     7    10 1   
    18     7    48 1   
    19     8     9 1   
    20     8    49 1   
    21     8    50 1   
    22     9    51 1   
    23    10    11 1   
    24    11    12 1   
    25    11    52 1   
    26    12    13 1   
    27    13    14 1   
    28    13    29 1   
    29    13    53 1   
    30    14    15 1   
    31    14    54 1   
    32    14    55 1   
    33    15    16 1   
    34    15    27 1   
    35    15    56 1   
    36    16    17 1   
    37    16    29 1   
    38    16    57 1   
    39    17    18 ar  
    40    17    26 ar  
    41    18    19 ar  
    42    18    58 1   
    43    19    20 ar  
    44    19    24 ar  
    45    20    21 ar  
    46    20    59 1   
    47    21    22 ar  
    48    21    60 1   
    49    22    23 ar  
    50    22    61 1   
    51    23    24 ar  
    52    23    62 1   
    53    24    25 ar  
    54    25    26 ar  
    55    25    63 1   
    56    26    27 1   
    57    27    28 2   
    58    29    30 1   
    59    29    38 1   
    60    30    31 ar  
    61    30    35 ar  
    62    31    32 ar  
    63    31    64 1   
    64    32    33 ar  
    65    32    65 1   
    66    33    34 ar  
    67    33    66 1   
    68    34    35 ar  
    69    34    67 1   
    70    35    36 1   
    71    36    37 1   
    72    36    68 1   
    73    36    69 1   
    74    37    38 1   
    75    37    70 1   
    76    37    71 1   
    77    38    39 2   
@<TRIPOS>SUBSTRUCTURE
     1 MOL         1 TEMP              0 ****  ****    0 ROOT
