@<TRIPOS>MOLECULE
MOL
   50    54     1     0     0
SMALL
bcc


@<TRIPOS>ATOM
      1 N1          10.8310    19.7020    13.6780 nv         1 MOL      -0.807100
      2 N2           8.9380    19.0310    14.7250 nv         1 MOL      -0.807100
      3 C1           9.5080    19.7240    13.7110 c2         1 MOL       0.509000
      4 C2           8.8600    20.4600    12.6930 cc         1 MOL      -0.168000
      5 C3           9.6740    20.9350    11.6570 cc         1 MOL      -0.073000
      6 C4           9.1510    21.7060    10.6010 cd         1 MOL      -0.152500
      7 C5           7.7920    22.0290    10.5560 cd         1 MOL       0.056300
      8 C6           6.9440    21.5610    11.5560 cd         1 MOL      -0.054000
      9 C7           7.4790    20.7650    12.6230 cc         1 MOL      -0.114000
     10 N3           9.7630    22.2660     9.5390 na         1 MOL      -0.295000
     11 C8           8.8040    22.9600     8.8530 cc         1 MOL       0.391500
     12 N4           7.6230    22.8130     9.4260 nc         1 MOL      -0.334000
     13 C9           9.0740    23.6890     7.7390 ca         1 MOL      -0.027000
     14 C10         10.3190    23.6380     7.1370 ca         1 MOL      -0.110000
     15 C11         10.5000    24.2840     5.9060 ca         1 MOL      -0.068200
     16 C12          9.4630    24.9860     5.3280 ca         1 MOL      -0.051000
     17 C13          8.2380    25.0440     5.9710 ca         1 MOL      -0.055000
     18 C14          8.0520    24.4120     7.1950 ca         1 MOL      -0.100000
     19 N5          11.5530    24.4030     5.0670 na         1 MOL      -0.200400
     20 C15         11.1670    25.1740     3.9940 cc         1 MOL       0.138500
     21 N6           9.9320    25.5830     4.1660 nc         1 MOL      -0.237600
     22 C16         11.9050    25.3860     2.8650 cd         1 MOL       0.047000
     23 C17         12.9850    24.5520     2.5990 cd         1 MOL      -0.097500
     24 C18         13.7620    24.7880     1.4700 cc         1 MOL      -0.082000
     25 C19         13.4640    25.8860     0.6390 cc         1 MOL      -0.167000
     26 C20         12.3200    26.6670     0.8850 cc         1 MOL      -0.082000
     27 C21         11.5400    26.4300     2.0210 cd         1 MOL      -0.097500
     28 C22         14.3390    26.2450    -0.3940 c2         1 MOL       0.506000
     29 N7          15.6270    25.8830    -0.3210 nv         1 MOL      -0.801600
     30 N8          13.8840    26.9610    -1.4270 nv         1 MOL      -0.801600
     31 H1          11.3260    20.1970    12.9500 hn         1 MOL       0.482300
     32 H2          11.3450    19.1910    14.3810 hn         1 MOL       0.482300
     33 H3           7.9320    19.0020    14.8150 hn         1 MOL       0.482300
     34 H4           9.5180    18.5430    15.3920 hn         1 MOL       0.482300
     35 H5          10.7310    20.7120    11.6550 ha         1 MOL       0.149000
     36 H6           5.8910    21.7980    11.5250 ha         1 MOL       0.185000
     37 H7           6.8050    20.3960    13.3830 ha         1 MOL       0.151000
     38 H8          10.7520    22.1220     9.3920 hn         1 MOL       0.320700
     39 H9          11.1290    23.1080     7.6160 ha         1 MOL       0.142000
     40 H10          7.4170    25.5840     5.5220 ha         1 MOL       0.173000
     41 H11          7.1090    24.4890     7.7150 ha         1 MOL       0.169000
     42 H12         12.4310    23.9570     5.2920 hn         1 MOL       0.312700
     43 H13         13.2120    23.7330     3.2650 ha         1 MOL       0.176500
     44 H14         14.5870    24.1320     1.2360 ha         1 MOL       0.156500
     45 H15         12.0430    27.4510     0.1960 ha         1 MOL       0.156500
     46 H16         10.6740    27.0330     2.2510 ha         1 MOL       0.176500
     47 H17         16.2660    26.1370    -1.0610 hn         1 MOL       0.484550
     48 H18         15.9590    25.3560     0.4740 hn         1 MOL       0.484550
     49 H19         14.5100    27.2230    -2.1750 hn         1 MOL       0.484550
     50 H20         12.9140    27.2400    -1.4600 hn         1 MOL       0.484550
@<TRIPOS>BOND
     1     1     3 1   
     2     1    31 1   
     3     1    32 1   
     4     2     3 1   
     5     2    33 1   
     6     2    34 1   
     7     3     4 2   
     8     4     5 1   
     9     4     9 1   
    10     5     6 2   
    11     5    35 1   
    12     6     7 1   
    13     6    10 1   
    14     7     8 1   
    15     7    12 2   
    16     8     9 2   
    17     8    36 1   
    18     9    37 1   
    19    10    11 1   
    20    10    38 1   
    21    11    12 1   
    22    11    13 2   
    23    13    14 ar  
    24    13    18 ar  
    25    14    15 ar  
    26    14    39 1   
    27    15    16 ar  
    28    15    19 1   
    29    16    17 ar  
    30    16    21 2   
    31    17    18 ar  
    32    17    40 1   
    33    18    41 1   
    34    19    20 1   
    35    19    42 1   
    36    20    21 1   
    37    20    22 2   
    38    22    23 1   
    39    22    27 1   
    40    23    24 2   
    41    23    43 1   
    42    24    25 1   
    43    24    44 1   
    44    25    26 1   
    45    25    28 2   
    46    26    27 2   
    47    26    45 1   
    48    27    46 1   
    49    28    29 1   
    50    28    30 1   
    51    29    47 1   
    52    29    48 1   
    53    30    49 1   
    54    30    50 1   
@<TRIPOS>SUBSTRUCTURE
     1 MOL         1 TEMP              0 ****  ****    0 ROOT
