
                    3D
 Schrodinger Suite 2021-1.
 50 54  0  0  1  0            999 V2000
   10.8310   19.7020   13.6780 N   0  0  0  0  0  0
    8.9380   19.0310   14.7250 N   0  3  0  0  0  0
    9.5080   19.7240   13.7110 C   0  0  0  0  0  0
    8.8600   20.4600   12.6930 C   0  0  0  0  0  0
    9.6740   20.9350   11.6570 C   0  0  0  0  0  0
    9.1510   21.7060   10.6010 C   0  0  0  0  0  0
    7.7920   22.0290   10.5560 C   0  0  0  0  0  0
    6.9440   21.5610   11.5560 C   0  0  0  0  0  0
    7.4790   20.7650   12.6230 C   0  0  0  0  0  0
    9.7630   22.2660    9.5390 N   0  0  0  0  0  0
    8.8040   22.9600    8.8530 C   0  0  0  0  0  0
    7.6230   22.8130    9.4260 N   0  0  0  0  0  0
    9.0740   23.6890    7.7390 C   0  0  0  0  0  0
   10.3190   23.6380    7.1370 C   0  0  0  0  0  0
   10.5000   24.2840    5.9060 C   0  0  0  0  0  0
    9.4630   24.9860    5.3280 C   0  0  0  0  0  0
    8.2380   25.0440    5.9710 C   0  0  0  0  0  0
    8.0520   24.4120    7.1950 C   0  0  0  0  0  0
   11.5530   24.4030    5.0670 N   0  0  0  0  0  0
   11.1670   25.1740    3.9940 C   0  0  0  0  0  0
    9.9320   25.5830    4.1660 N   0  0  0  0  0  0
   11.9050   25.3860    2.8650 C   0  0  0  0  0  0
   12.9850   24.5520    2.5990 C   0  0  0  0  0  0
   13.7620   24.7880    1.4700 C   0  0  0  0  0  0
   13.4640   25.8860    0.6390 C   0  0  0  0  0  0
   12.3200   26.6670    0.8850 C   0  0  0  0  0  0
   11.5400   26.4300    2.0210 C   0  0  0  0  0  0
   14.3390   26.2450   -0.3940 C   0  0  0  0  0  0
   15.6270   25.8830   -0.3210 N   0  0  0  0  0  0
   13.8840   26.9610   -1.4270 N   0  3  0  0  0  0
   11.3263   20.1967   12.9499 H   0  0  0  0  0  0
   11.3453   19.1906   14.3809 H   0  0  0  0  0  0
    7.9324   19.0024   14.8145 H   0  0  0  0  0  0
    9.5184   18.5426   15.3918 H   0  0  0  0  0  0
   10.7307   20.7121   11.6551 H   0  0  0  0  0  0
    5.8907   21.7977   11.5254 H   0  0  0  0  0  0
    6.8054   20.3964   13.3825 H   0  0  0  0  0  0
   10.7518   22.1218    9.3919 H   0  0  0  0  0  0
   11.1289   23.1076    7.6156 H   0  0  0  0  0  0
    7.4173   25.5835    5.5217 H   0  0  0  0  0  0
    7.1087   24.4894    7.7151 H   0  0  0  0  0  0
   12.4308   23.9568    5.2918 H   0  0  0  0  0  0
   13.2117   23.7329    3.2654 H   0  0  0  0  0  0
   14.5871   24.1318    1.2355 H   0  0  0  0  0  0
   12.0430   27.4511    0.1959 H   0  0  0  0  0  0
   10.6739   27.0328    2.2510 H   0  0  0  0  0  0
   16.2657   26.1372   -1.0610 H   0  0  0  0  0  0
   15.9592   25.3560    0.4740 H   0  0  0  0  0  0
   14.5103   27.2228   -2.1749 H   0  0  0  0  0  0
   12.9139   27.2402   -1.4597 H   0  0  0  0  0  0
  1  3  1  0  0  0
  1 31  1  0  0  0
  1 32  1  0  0  0
  2  3  2  0  0  0
  2 33  1  0  0  0
  2 34  1  0  0  0
  3  4  1  0  0  0
  4  5  2  0  0  0
  4  9  1  0  0  0
  5  6  1  0  0  0
  5 35  1  0  0  0
  6  7  2  0  0  0
  6 10  1  0  0  0
  7  8  1  0  0  0
  7 12  1  0  0  0
  8  9  2  0  0  0
  8 36  1  0  0  0
  9 37  1  0  0  0
 10 11  1  0  0  0
 10 38  1  0  0  0
 11 12  2  0  0  0
 11 13  1  0  0  0
 13 14  2  0  0  0
 13 18  1  0  0  0
 14 15  1  0  0  0
 14 39  1  0  0  0
 15 16  2  0  0  0
 15 19  1  0  0  0
 16 17  1  0  0  0
 16 21  1  0  0  0
 17 18  2  0  0  0
 17 40  1  0  0  0
 18 41  1  0  0  0
 19 20  1  0  0  0
 19 42  1  0  0  0
 20 21  2  0  0  0
 20 22  1  0  0  0
 22 23  1  0  0  0
 22 27  2  0  0  0
 23 24  2  0  0  0
 23 43  1  0  0  0
 24 25  1  0  0  0
 24 44  1  0  0  0
 25 26  2  0  0  0
 25 28  1  0  0  0
 26 27  1  0  0  0
 26 45  1  0  0  0
 27 46  1  0  0  0
 28 29  1  0  0  0
 28 30  2  0  0  0
 29 47  1  0  0  0
 29 48  1  0  0  0
 30 49  1  0  0  0
 30 50  1  0  0  0
M  CHG  2   2   1  30   1
M  END
> <s_pdb_PDB_format_version>
3.0

> <b_ppw_prepared>
1

> <s_ppw_prepared_with_version>
2021-1

> <s_ppw_het_states>
eJztWMtu4zAM/BXD5yAQqRe1v1L0D4q97Snovy8pc2Sj6LEI1EA5hI8QY4oaDOg8dtr/bG/6odsW3m/bG982Mhs9Tm6z2+K2uhW3zS0FOEAkhgNMAigBlQBLwCUAE5AZyDx6BTIDmYHMQGYgM5AZyAzkGOzQ5tkYok+Au8s+jORZtdmz6jbPaqq4q7Z6gaWCpzUnp0sYs3QMxuRsaITpWRGPAG11J+EXC4BrWZsoYbQ2VR4BerWsjXkEPB5aDzTG3Bndm2NlPAIcwByO1wCntyyj0e6gN3MYvfUAR+hZ9GZZbpfA7ontnsJdqGjpYydW/mrYohbuTEfESTH2WDWie7Bn74mOILT4edv+/vv4OL77rS/2L/Z/z/6T8Cibgf2NAl/Y36QqzE7tYP+F+0S1LLpPTPeT4ShaYv+F7ira0mqne3BSd3lnV/RW5dR3Vu1fhF+E/836rgyXGC+E5yAMfdcf0wtsMGOgr8fwyTaYOSU9hxLHBqOhxHJuLZVihaTne87Snk74cVVL0hfhf4LwtUpf2X1rkSQZhM/6+prbucM0Sc8n/FL4X7vDzEr4li47jIQUT02XSEvTZ6b4ZJo+55pepbZO8WMxF7GnQdNbyM//6+XHKf7CKj4ZxWdUcb6XYkN5HKQutsWMRaXYEvPlVfT98z/KaXXo

$$$$
