
                    3D
 Schrodinger Suite 2021-1.
 29 28  0  0  1  0            999 V2000
    6.2190   -4.2820    6.3160 N   0  3  0  0  0  0
    5.5720   -2.9860    6.1500 C   0  0  1  0  0  0
    4.7000   -3.0300    4.8320 C   0  0  0  0  0  0
    3.9870   -1.6890    4.3740 C   0  0  0  0  0  0
    3.0750   -1.7530    3.1070 C   0  0  0  0  0  0
    3.8210   -2.2280    1.9150 N   0  0  0  0  0  0
    3.3880   -2.9930    0.8930 C   0  0  0  0  0  0
    2.1710   -3.4880    0.8010 N   0  0  0  0  0  0
    4.2180   -3.2820   -0.0940 N   0  3  0  0  0  0
    4.7500   -2.6620    7.4220 C   0  0  0  0  0  0
    4.4880   -1.5000    7.7390 O   0  0  0  0  0  0
    4.3050   -3.6250    8.2210 N   0  0  0  0  0  0
    6.7817   -4.2729    7.1547 H   0  0  0  0  0  0
    5.5156   -5.0029    6.3909 H   0  0  0  0  0  0
    6.8086   -4.4692    5.5176 H   0  0  0  0  0  0
    6.3433   -2.2250    6.0313 H   0  0  0  0  0  0
    3.9532   -3.8187    4.9236 H   0  0  0  0  0  0
    5.3103   -3.4084    4.0120 H   0  0  0  0  0  0
    4.7399   -0.9133    4.2341 H   0  0  0  0  0  0
    3.4126   -1.2862    5.2083 H   0  0  0  0  0  0
    2.6628   -0.7640    2.9065 H   0  0  0  0  0  0
    2.2346   -2.4202    3.2985 H   0  0  0  0  0  0
    4.7761   -1.8998    1.9308 H   0  0  0  0  0  0
    1.9151   -4.0545    0.0049 H   0  0  0  0  0  0
    1.4936   -3.3011    1.5265 H   0  0  0  0  0  0
    3.9056   -3.8542   -0.8654 H   0  0  0  0  0  0
    5.1648   -2.9306   -0.0769 H   0  0  0  0  0  0
    3.7707   -3.3905    9.0454 H   0  0  0  0  0  0
    4.5008   -4.5918    8.0042 H   0  0  0  0  0  0
  1  2  1  0  0  0
  1 13  1  0  0  0
  1 14  1  0  0  0
  1 15  1  0  0  0
  2  3  1  0  0  0
  2 10  1  0  0  0
  2 16  1  0  0  0
  3  4  1  0  0  0
  3 17  1  0  0  0
  3 18  1  0  0  0
  4  5  1  0  0  0
  4 19  1  0  0  0
  4 20  1  0  0  0
  5  6  1  0  0  0
  5 21  1  0  0  0
  5 22  1  0  0  0
  6  7  1  0  0  0
  6 23  1  0  0  0
  7  8  1  0  0  0
  7  9  2  0  0  0
  8 24  1  0  0  0
  8 25  1  0  0  0
  9 26  1  0  0  0
  9 27  1  0  0  0
 10 11  2  0  0  0
 10 12  1  0  0  0
 12 28  1  0  0  0
 12 29  1  0  0  0
M  CHG  2   1   1   9   1
M  END
> <i_pdb_PDB_Model>
1

> <s_pdb_PDB_format_version>
3.0

> <b_ppw_prepared>
1

> <s_ppw_prepared_with_version>
2021-1

> <s_ppw_het_states>
eJztkEEOgzAMBL8S5Ryh2JCE9CuIH6DeekL8vXZYyAdQD5U5MLsg4zC7J/9yi1wUHK3BLRxcVI7gBCYwgwWcwYp5inhAdIX2SU26hPuesUedIqydEIUJUZgRhQVROPcoB+DrALq7l7ZSWhxqYnmze87y163KoOdytyO492fbzns7sokxMSbmMTHxz8XQUInrLUZrvMWczcSYGBNjYn4nZj2+HOod4w==

$$$$
