@<TRIPOS>MOLECULE
MOL
   29    28     1     0     0
SMALL
bcc


@<TRIPOS>ATOM
      1 N1           6.2190    -4.2820     6.3160 nz         1 MOL      -0.832600
      2 C1           5.5720    -2.9860     6.1500 c3         1 MOL       0.019500
      3 C2           4.7000    -3.0300     4.8320 c3         1 MOL      -0.103400
      4 C3           3.9870    -1.6890     4.3740 c3         1 MOL      -0.102400
      5 C4           3.0750    -1.7530     3.1070 c3         1 MOL       0.020300
      6 N2           3.8210    -2.2280     1.9150 nu         1 MOL      -0.414100
      7 C5           3.3880    -2.9930     0.8930 cz         1 MOL       0.523300
      8 N3           2.1710    -3.4880     0.8010 nv         1 MOL      -0.488700
      9 N4           4.2180    -3.2820    -0.0940 nv         1 MOL      -0.488700
     10 C6           4.7500    -2.6620     7.4220 c          1 MOL       0.624100
     11 O1           4.4880    -1.5000     7.7390 o          1 MOL      -0.496100
     12 N5           4.3050    -3.6250     8.2210 nt         1 MOL      -0.647000
     13 H1           6.7820    -4.2730     7.1550 hn         1 MOL       0.472133
     14 H2           5.5160    -5.0030     6.3910 hn         1 MOL       0.472133
     15 H3           6.8090    -4.4690     5.5180 hn         1 MOL       0.472133
     16 H4           6.3430    -2.2250     6.0310 hx         1 MOL       0.150700
     17 H5           3.9530    -3.8190     4.9240 hc         1 MOL       0.072700
     18 H6           5.3100    -3.4080     4.0120 hc         1 MOL       0.072700
     19 H7           4.7400    -0.9130     4.2340 hc         1 MOL       0.096200
     20 H8           3.4130    -1.2860     5.2080 hc         1 MOL       0.096200
     21 H9           2.6630    -0.7640     2.9060 h1         1 MOL       0.078700
     22 H10          2.2350    -2.4200     3.2990 h1         1 MOL       0.078700
     23 H11          4.7760    -1.9000     1.9310 hn         1 MOL       0.311700
     24 H12          1.9150    -4.0540     0.0050 hn         1 MOL       0.335200
     25 H13          1.4940    -3.3010     1.5260 hn         1 MOL       0.335200
     26 H14          3.9060    -3.8540    -0.8650 hn         1 MOL       0.335200
     27 H15          5.1650    -2.9310    -0.0770 hn         1 MOL       0.335200
     28 H16          3.7710    -3.3900     9.0450 hn         1 MOL       0.335500
     29 H17          4.5010    -4.5920     8.0040 hn         1 MOL       0.335500
@<TRIPOS>BOND
     1     1     2 1   
     2     1    13 1   
     3     1    14 1   
     4     1    15 1   
     5     2     3 1   
     6     2    10 1   
     7     2    16 1   
     8     3     4 1   
     9     3    17 1   
    10     3    18 1   
    11     4     5 1   
    12     4    19 1   
    13     4    20 1   
    14     5     6 1   
    15     5    21 1   
    16     5    22 1   
    17     6     7 2   
    18     6    23 1   
    19     7     8 1   
    20     7     9 1   
    21     8    24 1   
    22     8    25 1   
    23     9    26 1   
    24     9    27 1   
    25    10    11 2   
    26    10    12 1   
    27    12    28 1   
    28    12    29 1   
@<TRIPOS>SUBSTRUCTURE
     1 MOL         1 TEMP              0 ****  ****    0 ROOT
