@<TRIPOS>MOLECULE
MOL
   64    68     1     0     0
SMALL
bcc


@<TRIPOS>ATOM
      1 C1          -8.4490    -7.0880    20.3190 ca         1 MOL      -0.190300
      2 C2          -7.6950    -8.2770    20.3280 ca         1 MOL      -0.132000
      3 C3          -7.8140    -5.8580    20.5740 ca         1 MOL      -0.035000
      4 C4          -4.3790    -4.5890    21.2480 ca         1 MOL      -0.218600
      5 C5          -3.6920    -5.8250    21.2790 ca         1 MOL       0.468600
      6 C6          -1.6040    -4.6610    21.7440 ca         1 MOL      -0.094000
      7 C7          -1.6000    -2.2390    22.0390 ca         1 MOL      -0.046000
      8 C8          -1.6590     0.1950    22.2830 ca         1 MOL      -0.039000
      9 C9          -3.7430     1.3860    21.8860 ca         1 MOL      -0.129000
     10 C10         -4.3830     0.1760    21.5850 ca         1 MOL      -0.139300
     11 C11         -6.3240    -8.2380    20.6240 ca         1 MOL      -0.132300
     12 C12         -2.3060    -5.8540    21.5090 ca         1 MOL      -0.161300
     13 C13         -2.3830     1.4010    22.2380 ca         1 MOL      -0.187300
     14 N1          -4.3560    -6.9790    21.0770 nb         1 MOL      -0.646000
     15 C14         -5.7640    -4.5900    20.9900 ca         1 MOL      -0.015000
     16 C15         -6.4270    -5.8140    20.8080 ca         1 MOL      -0.182300
     17 N2         -10.2030    -6.9620    18.6310 ny         1 MOL      -0.767000
     18 C16         -5.6820    -7.0100    20.8470 ca         1 MOL       0.443600
     19 C17        -11.3820    -6.2370    18.1840 c3         1 MOL       0.098800
     20 C18        -11.4410    -6.2030    16.6530 c3         1 MOL      -0.105400
     21 N3          -1.5670     2.8040    24.0320 ny         1 MOL      -0.767000
     22 C19        -12.6520    -5.3940    16.1820 c3         1 MOL      -0.103100
     23 C20         -1.7120     2.7110    22.5890 c3         1 MOL       0.169100
     24 C21         -2.6810     3.1960    24.8810 c3         1 MOL       0.103800
     25 C22         -3.4120     1.9700    25.4440 c3         1 MOL      -0.111400
     26 C23         -2.4770     1.0390    26.2240 c3         1 MOL      -0.119100
     27 C24         -9.9400    -7.1340    20.0500 c3         1 MOL       0.174100
     28 C25         -2.2870    -3.4320    21.7500 ca         1 MOL      -0.142300
     29 C26         -3.6710    -3.3870    21.4670 ca         1 MOL       0.476600
     30 C27         -2.3040    -1.0230    21.9990 ca         1 MOL      -0.166300
     31 C28         -3.6740    -1.0330    21.6610 ca         1 MOL       0.436600
     32 N4          -4.3050    -2.1960    21.4160 nb         1 MOL      -0.668000
     33 H1          -8.1720    -9.2200    20.1070 ha         1 MOL       0.138000
     34 H2          -8.3910    -4.9450    20.5900 ha         1 MOL       0.145000
     35 H3          -0.5390    -4.6870    21.9200 ha         1 MOL       0.158000
     36 H4          -0.5490    -2.2670    22.2860 ha         1 MOL       0.158000
     37 H5          -0.6090     0.2050    22.5350 ha         1 MOL       0.148000
     38 H6          -4.2950     2.3130    21.8480 ha         1 MOL       0.138000
     39 H7          -5.4230     0.1730    21.2940 ha         1 MOL       0.170000
     40 H8          -5.7580    -9.1560    20.6810 ha         1 MOL       0.180000
     41 H9          -1.7780    -6.7960    21.5050 ha         1 MOL       0.178000
     42 H10         -6.3040    -3.6560    20.9340 ha         1 MOL       0.168000
     43 H11         -9.3860    -6.5610    18.1930 hn         1 MOL       0.450300
     44 H12        -10.1860    -7.8670    18.1830 hn         1 MOL       0.450300
     45 H13        -11.3490    -5.2180    18.5690 hx         1 MOL       0.106700
     46 H14        -12.2770    -6.7250    18.5710 hx         1 MOL       0.106700
     47 H15        -11.5130    -7.2210    16.2700 hc         1 MOL       0.067200
     48 H16        -10.5290    -5.7500    16.2650 hc         1 MOL       0.067200
     49 H17         -0.7740     3.3930    24.2420 hn         1 MOL       0.452300
     50 H18         -1.1840     1.9360    24.3780 hn         1 MOL       0.452300
     51 H19        -12.6790    -5.3800    15.0920 hc         1 MOL       0.064033
     52 H20        -13.5650    -5.8520    16.5610 hc         1 MOL       0.064033
     53 H21        -12.5750    -4.3730    16.5560 hc         1 MOL       0.064033
     54 H22         -2.3240     3.5390    22.2310 hx         1 MOL       0.110700
     55 H23         -0.7280     2.7520    22.1220 hx         1 MOL       0.110700
     56 H24         -3.3800     3.8030    24.3050 hx         1 MOL       0.106700
     57 H25         -2.3120     3.8080    25.7040 hx         1 MOL       0.106700
     58 H26         -3.8750     1.4170    24.6270 hc         1 MOL       0.087700
     59 H27         -4.2220     2.2990    26.0950 hc         1 MOL       0.087700
     60 H28         -3.0430     0.1870    26.6010 hc         1 MOL       0.056700
     61 H29         -1.6840     0.6840    25.5650 hc         1 MOL       0.056700
     62 H30         -2.0380     1.5820    27.0610 hc         1 MOL       0.056700
     63 H31        -10.4340    -6.3400    20.6100 hx         1 MOL       0.109700
     64 H32        -10.3390    -8.0930    20.3790 hx         1 MOL       0.109700
@<TRIPOS>BOND
     1     1     2 ar  
     2     1     3 ar  
     3     1    27 1   
     4     2    11 ar  
     5     2    33 1   
     6     3    16 ar  
     7     3    34 1   
     8     4     5 ar  
     9     4    15 ar  
    10     4    29 ar  
    11     5    12 ar  
    12     5    14 ar  
    13     6    12 ar  
    14     6    28 ar  
    15     6    35 1   
    16     7    28 ar  
    17     7    30 ar  
    18     7    36 1   
    19     8    13 ar  
    20     8    30 ar  
    21     8    37 1   
    22     9    10 ar  
    23     9    13 ar  
    24     9    38 1   
    25    10    31 ar  
    26    10    39 1   
    27    11    18 ar  
    28    11    40 1   
    29    12    41 1   
    30    13    23 1   
    31    14    18 ar  
    32    15    16 ar  
    33    15    42 1   
    34    16    18 ar  
    35    17    19 1   
    36    17    27 1   
    37    17    43 1   
    38    17    44 1   
    39    19    20 1   
    40    19    45 1   
    41    19    46 1   
    42    20    22 1   
    43    20    47 1   
    44    20    48 1   
    45    21    23 1   
    46    21    24 1   
    47    21    49 1   
    48    21    50 1   
    49    22    51 1   
    50    22    52 1   
    51    22    53 1   
    52    23    54 1   
    53    23    55 1   
    54    24    25 1   
    55    24    56 1   
    56    24    57 1   
    57    25    26 1   
    58    25    58 1   
    59    25    59 1   
    60    26    60 1   
    61    26    61 1   
    62    26    62 1   
    63    27    63 1   
    64    27    64 1   
    65    28    29 ar  
    66    29    32 ar  
    67    30    31 ar  
    68    31    32 ar  
@<TRIPOS>SUBSTRUCTURE
     1 MOL         1 TEMP              0 ****  ****    0 ROOT
