@<TRIPOS>MOLECULE
MOL
   64    68     1     0     0
SMALL
bcc


@<TRIPOS>ATOM
      1 C1          -9.4830    -0.7280     9.4410 ca         1 MOL      -0.189300
      2 C2          -9.4610    -2.0300     8.9020 ca         1 MOL      -0.132000
      3 C3          -8.2810    -0.0180     9.5540 ca         1 MOL      -0.035000
      4 C4          -4.6540    -0.5710     9.1790 ca         1 MOL      -0.218600
      5 C5          -4.6620    -1.9370     8.8230 ca         1 MOL       0.467600
      6 C6          -2.2240    -1.9140     8.7400 ca         1 MOL      -0.095000
      7 C7          -1.0120     0.1560     9.2460 ca         1 MOL      -0.046000
      8 C8           0.1120     2.3120     9.5520 ca         1 MOL      -0.039000
      9 C9          -1.2210     4.3190     9.9030 ca         1 MOL      -0.128000
     10 C10         -2.3960     3.5570     9.8220 ca         1 MOL      -0.139300
     11 C11         -8.2320    -2.6690     8.6420 ca         1 MOL      -0.133300
     12 C12         -3.4450    -2.6000     8.5910 ca         1 MOL      -0.161300
     13 C13          0.0350     3.7040     9.7500 ca         1 MOL      -0.188300
     14 N1          -5.8340    -2.5950     8.6740 nb         1 MOL      -0.646000
     15 C14         -5.8730     0.0820     9.4120 ca         1 MOL      -0.015000
     16 C15         -7.0610    -0.6370     9.2680 ca         1 MOL      -0.182300
     17 N2         -10.9000     1.2670     9.4610 ny         1 MOL      -0.767000
     18 C16         -7.0230    -1.9820     8.8580 ca         1 MOL       0.443600
     19 C17        -11.8650     2.1830    10.0430 c3         1 MOL       0.102800
     20 C18        -11.4580     3.6360     9.7690 c3         1 MOL      -0.114400
     21 N3           1.5700     5.2020     8.6010 ny         1 MOL      -0.766000
     22 C19        -11.4690     3.9730     8.2730 c3         1 MOL      -0.120100
     23 C20          1.3020     4.5290     9.8530 c3         1 MOL       0.168100
     24 C21          2.6780     6.1340     8.4680 c3         1 MOL       0.103800
     25 C22          3.7090     5.5810     7.4790 c3         1 MOL      -0.113400
     26 C23          4.5330     4.4350     8.0700 c3         1 MOL      -0.116100
     27 C24        -10.7730    -0.0970     9.9480 c3         1 MOL       0.173100
     28 C25         -2.2190    -0.5510     9.0890 ca         1 MOL      -0.142300
     29 C26         -3.4390     0.1310     9.2720 ca         1 MOL       0.476600
     30 C27         -1.0630     1.5460     9.4630 ca         1 MOL      -0.166300
     31 C28         -2.3170     2.1750     9.5970 ca         1 MOL       0.436600
     32 N4          -3.4440     1.4550     9.5150 nb         1 MOL      -0.668000
     33 H1         -10.3880    -2.5410     8.6870 ha         1 MOL       0.137000
     34 H2          -8.2920     1.0160     9.8640 ha         1 MOL       0.145000
     35 H3          -1.2900    -2.4340     8.5860 ha         1 MOL       0.158000
     36 H4          -0.0690    -0.3680     9.1990 ha         1 MOL       0.158000
     37 H5           1.0750     1.8310     9.4680 ha         1 MOL       0.147000
     38 H6          -1.2780     5.3820    10.0840 ha         1 MOL       0.139000
     39 H7          -3.3580     4.0350     9.9330 ha         1 MOL       0.170000
     40 H8          -8.2180    -3.6850     8.2770 ha         1 MOL       0.180000
     41 H9          -3.4440    -3.6390     8.2970 ha         1 MOL       0.178000
     42 H10         -5.8820     1.1230     9.6970 ha         1 MOL       0.168000
     43 H11         -9.9890     1.7030     9.4710 hn         1 MOL       0.451300
     44 H12        -11.0340     1.2450     8.4600 hn         1 MOL       0.451300
     45 H13        -11.9190     2.0180    11.1190 hx         1 MOL       0.105700
     46 H14        -12.8490     1.9950     9.6140 hx         1 MOL       0.105700
     47 H15        -10.4620     3.8160    10.1740 hc         1 MOL       0.088700
     48 H16        -12.1350     4.3080    10.2970 hc         1 MOL       0.088700
     49 H17          0.7240     5.6550     8.2870 hn         1 MOL       0.450300
     50 H18          1.6350     4.5110     7.8670 hn         1 MOL       0.450300
     51 H19        -11.1740     5.0130     8.1320 hc         1 MOL       0.057700
     52 H20        -10.7690     3.3230     7.7480 hc         1 MOL       0.057700
     53 H21        -12.4720     3.8230     7.8740 hc         1 MOL       0.057700
     54 H22          2.1400     3.8780    10.1020 hx         1 MOL       0.112200
     55 H23          1.1900     5.2690    10.6460 hx         1 MOL       0.112200
     56 H24          3.1490     6.2790     9.4400 hx         1 MOL       0.107200
     57 H25          2.3050     7.0920     8.1060 hx         1 MOL       0.107200
     58 H26          4.3770     6.3830     7.1650 hc         1 MOL       0.090200
     59 H27          3.1990     5.2350     6.5800 hc         1 MOL       0.090200
     60 H28          5.2480     4.0800     7.3280 hc         1 MOL       0.054700
     61 H29          5.0690     4.7890     8.9500 hc         1 MOL       0.054700
     62 H30          3.8690     3.6180     8.3540 hc         1 MOL       0.054700
     63 H31        -10.7720    -0.0950    11.0380 hx         1 MOL       0.109200
     64 H32        -11.6240    -0.6850     9.6050 hx         1 MOL       0.109200
@<TRIPOS>BOND
     1     1     2 ar  
     2     1     3 ar  
     3     1    27 1   
     4     2    11 ar  
     5     2    33 1   
     6     3    16 ar  
     7     3    34 1   
     8     4     5 ar  
     9     4    15 ar  
    10     4    29 ar  
    11     5    12 ar  
    12     5    14 ar  
    13     6    12 ar  
    14     6    28 ar  
    15     6    35 1   
    16     7    28 ar  
    17     7    30 ar  
    18     7    36 1   
    19     8    13 ar  
    20     8    30 ar  
    21     8    37 1   
    22     9    10 ar  
    23     9    13 ar  
    24     9    38 1   
    25    10    31 ar  
    26    10    39 1   
    27    11    18 ar  
    28    11    40 1   
    29    12    41 1   
    30    13    23 1   
    31    14    18 ar  
    32    15    16 ar  
    33    15    42 1   
    34    16    18 ar  
    35    17    19 1   
    36    17    27 1   
    37    17    43 1   
    38    17    44 1   
    39    19    20 1   
    40    19    45 1   
    41    19    46 1   
    42    20    22 1   
    43    20    47 1   
    44    20    48 1   
    45    21    23 1   
    46    21    24 1   
    47    21    49 1   
    48    21    50 1   
    49    22    51 1   
    50    22    52 1   
    51    22    53 1   
    52    23    54 1   
    53    23    55 1   
    54    24    25 1   
    55    24    56 1   
    56    24    57 1   
    57    25    26 1   
    58    25    58 1   
    59    25    59 1   
    60    26    60 1   
    61    26    61 1   
    62    26    62 1   
    63    27    63 1   
    64    27    64 1   
    65    28    29 ar  
    66    29    32 ar  
    67    30    31 ar  
    68    31    32 ar  
@<TRIPOS>SUBSTRUCTURE
     1 MOL         1 TEMP              0 ****  ****    0 ROOT
