@<TRIPOS>MOLECULE
MOL
   57    62     1     0     0
SMALL
bcc


@<TRIPOS>ATOM
      1 O1           8.5280    19.9400    13.7650 oh         1 MOL      -0.486100
      2 C1           8.4790    20.7340    12.6180 ca         1 MOL       0.152100
      3 C2           8.4590    22.2650    10.2290 ca         1 MOL      -0.171900
      4 C3           7.2730    21.2120    12.0560 ca         1 MOL      -0.191000
      5 C4           7.2490    21.9740    10.8670 ca         1 MOL      -0.058000
      6 C5           9.6710    21.0390    11.9780 ca         1 MOL      -0.191000
      7 C6           9.6410    21.7890    10.8020 ca         1 MOL      -0.058000
      8 C7           8.5350    23.0100     9.0330 cc         1 MOL       0.504400
      9 N1           9.6480    23.0860     8.2120 na         1 MOL      -0.283300
     10 C8           9.4110    23.9600     7.2130 ca         1 MOL      -0.082200
     11 C9           8.1370    24.3870     7.3700 ca         1 MOL       0.098400
     12 N2           7.5930    23.7530     8.4850 nd         1 MOL      -0.561100
     13 C10          7.5780    25.2120     6.3970 ca         1 MOL      -0.074000
     14 C11          8.3390    25.6750     5.3240 ca         1 MOL      -0.106000
     15 C12          9.6430    25.2330     5.1520 ca         1 MOL      -0.126900
     16 C13         10.1680    24.3260     6.0840 ca         1 MOL      -0.116000
     17 C14         10.3650    25.7170     4.0460 cc         1 MOL       0.505400
     18 N3          11.5160    25.1530     3.5330 na         1 MOL      -0.282300
     19 C15         11.9170    25.8690     2.4590 ca         1 MOL      -0.062200
     20 C16         11.0260    26.8700     2.2940 ca         1 MOL       0.082400
     21 N4          10.0760    26.7720     3.3040 nd         1 MOL      -0.549100
     22 C17         11.0760    27.6110     1.1200 ca         1 MOL      -0.049000
     23 C18         12.0980    27.3790     0.1930 ca         1 MOL      -0.151000
     24 C19         13.0490    26.3610     0.3310 ca         1 MOL       0.089600
     25 C20         12.8920    25.5830     1.4930 ca         1 MOL      -0.164000
     26 N5          13.9680    26.0810    -0.6420 nh         1 MOL      -0.638000
     27 C21         13.6040    26.3090    -2.0390 c3         1 MOL       0.160300
     28 C22         14.8130    26.2160    -2.9330 c3         1 MOL       0.104300
     29 N6          15.6230    25.0030    -2.8580 nx         1 MOL      -0.682400
     30 C23         16.0210    24.9260    -1.4640 c3         1 MOL       0.104300
     31 C24         14.9310    24.9950    -0.4460 c3         1 MOL       0.160300
     32 C25         16.8050    25.1490    -3.7020 c3         1 MOL       0.084100
     33 H1           9.4420    19.7300    13.9700 ho         1 MOL       0.426000
     34 H2           6.3300    20.9970    12.5380 ha         1 MOL       0.152500
     35 H3           6.3190    22.3310    10.4490 ha         1 MOL       0.146500
     36 H4          10.6080    20.6970    12.3910 ha         1 MOL       0.152500
     37 H5          10.5910    21.9970    10.3320 ha         1 MOL       0.146500
     38 H6          10.4660    22.5290     8.4170 hn         1 MOL       0.308700
     39 H7           6.5400    25.5030     6.4670 ha         1 MOL       0.162000
     40 H8           7.9140    26.3790     4.6240 ha         1 MOL       0.157000
     41 H9          11.1530    23.9080     5.9360 ha         1 MOL       0.132000
     42 H10         11.9140    24.3330     3.9680 hn         1 MOL       0.311700
     43 H11         10.3270    28.3640     0.9240 ha         1 MOL       0.165000
     44 H12         12.1820    28.0020    -0.6850 ha         1 MOL       0.139000
     45 H13         13.5550    24.7410     1.6270 ha         1 MOL       0.130000
     46 H14         13.1530    27.2960    -2.1400 h1         1 MOL       0.078950
     47 H15         12.8670    25.5680    -2.3480 h1         1 MOL       0.078950
     48 H16         15.4510    27.0830    -2.7630 hx         1 MOL       0.108450
     49 H17         14.5070    26.3780    -3.9660 hx         1 MOL       0.108450
     50 H18         15.0850    24.1910    -3.1260 hn         1 MOL       0.444800
     51 H19         16.7550    25.7050    -1.2570 hx         1 MOL       0.108450
     52 H20         16.6020    24.0170    -1.3070 hx         1 MOL       0.108450
     53 H21         14.4010    24.0430    -0.4200 h1         1 MOL       0.078950
     54 H22         15.3710    25.0780     0.5480 h1         1 MOL       0.078950
     55 H23         17.4080    24.2430    -3.6440 hx         1 MOL       0.105033
     56 H24         16.4970    25.3140    -4.7340 hx         1 MOL       0.105033
     57 H25         17.3950    25.9990    -3.3590 hx         1 MOL       0.105033
@<TRIPOS>BOND
     1     1     2 1   
     2     1    33 1   
     3     2     4 ar  
     4     2     6 ar  
     5     3     5 ar  
     6     3     7 ar  
     7     3     8 1   
     8     4     5 ar  
     9     4    34 1   
    10     5    35 1   
    11     6     7 ar  
    12     6    36 1   
    13     7    37 1   
    14     8     9 1   
    15     8    12 2   
    16     9    10 1   
    17     9    38 1   
    18    10    11 ar  
    19    10    16 ar  
    20    11    12 1   
    21    11    13 ar  
    22    13    14 ar  
    23    13    39 1   
    24    14    15 ar  
    25    14    40 1   
    26    15    16 ar  
    27    15    17 1   
    28    16    41 1   
    29    17    18 1   
    30    17    21 2   
    31    18    19 1   
    32    18    42 1   
    33    19    20 ar  
    34    19    25 ar  
    35    20    21 1   
    36    20    22 ar  
    37    22    23 ar  
    38    22    43 1   
    39    23    24 ar  
    40    23    44 1   
    41    24    25 ar  
    42    24    26 1   
    43    25    45 1   
    44    26    27 1   
    45    26    31 1   
    46    27    28 1   
    47    27    46 1   
    48    27    47 1   
    49    28    29 1   
    50    28    48 1   
    51    28    49 1   
    52    29    30 1   
    53    29    32 1   
    54    29    50 1   
    55    30    31 1   
    56    30    51 1   
    57    30    52 1   
    58    31    53 1   
    59    31    54 1   
    60    32    55 1   
    61    32    56 1   
    62    32    57 1   
@<TRIPOS>SUBSTRUCTURE
     1 MOL         1 TEMP              0 ****  ****    0 ROOT
