
                    3D
 Schrodinger Suite 2021-1.
 57 62  0  0  1  0            999 V2000
    8.5280   19.9400   13.7650 O   0  0  0  0  0  0
    8.4790   20.7340   12.6180 C   0  0  0  0  0  0
    8.4590   22.2650   10.2290 C   0  0  0  0  0  0
    7.2730   21.2120   12.0560 C   0  0  0  0  0  0
    7.2490   21.9740   10.8670 C   0  0  0  0  0  0
    9.6710   21.0390   11.9780 C   0  0  0  0  0  0
    9.6410   21.7890   10.8020 C   0  0  0  0  0  0
    8.5350   23.0100    9.0330 C   0  0  0  0  0  0
    9.6480   23.0860    8.2120 N   0  0  0  0  0  0
    9.4110   23.9600    7.2130 C   0  0  0  0  0  0
    8.1370   24.3870    7.3700 C   0  0  0  0  0  0
    7.5930   23.7530    8.4850 N   0  0  0  0  0  0
    7.5780   25.2120    6.3970 C   0  0  0  0  0  0
    8.3390   25.6750    5.3240 C   0  0  0  0  0  0
    9.6430   25.2330    5.1520 C   0  0  0  0  0  0
   10.1680   24.3260    6.0840 C   0  0  0  0  0  0
   10.3650   25.7170    4.0460 C   0  0  0  0  0  0
   11.5160   25.1530    3.5330 N   0  0  0  0  0  0
   11.9170   25.8690    2.4590 C   0  0  0  0  0  0
   11.0260   26.8700    2.2940 C   0  0  0  0  0  0
   10.0760   26.7720    3.3040 N   0  0  0  0  0  0
   11.0760   27.6110    1.1200 C   0  0  0  0  0  0
   12.0980   27.3790    0.1930 C   0  0  0  0  0  0
   13.0490   26.3610    0.3310 C   0  0  0  0  0  0
   12.8920   25.5830    1.4930 C   0  0  0  0  0  0
   13.9680   26.0810   -0.6420 N   0  0  0  0  0  0
   13.6040   26.3090   -2.0390 C   0  0  0  0  0  0
   14.8130   26.2160   -2.9330 C   0  0  0  0  0  0
   15.6230   25.0030   -2.8580 N   0  3  0  0  0  0
   16.0210   24.9260   -1.4640 C   0  0  0  0  0  0
   14.9310   24.9950   -0.4460 C   0  0  0  0  0  0
   16.8050   25.1490   -3.7020 C   0  0  0  0  0  0
    9.4419   19.7297   13.9704 H   0  0  0  0  0  0
    6.3305   20.9973   12.5376 H   0  0  0  0  0  0
    6.3190   22.3305   10.4494 H   0  0  0  0  0  0
   10.6085   20.6967   12.3907 H   0  0  0  0  0  0
   10.5909   21.9974   10.3323 H   0  0  0  0  0  0
   10.4655   22.5293    8.4167 H   0  0  0  0  0  0
    6.5402   25.5026    6.4666 H   0  0  0  0  0  0
    7.9137   26.3793    4.6244 H   0  0  0  0  0  0
   11.1529   23.9084    5.9357 H   0  0  0  0  0  0
   11.9141   24.3332    3.9684 H   0  0  0  0  0  0
   10.3271   28.3642    0.9245 H   0  0  0  0  0  0
   12.1824   28.0023   -0.6850 H   0  0  0  0  0  0
   13.5547   24.7409    1.6275 H   0  0  0  0  0  0
   13.1530   27.2962   -2.1400 H   0  0  0  0  0  0
   12.8667   25.5679   -2.3475 H   0  0  0  0  0  0
   15.4512   27.0830   -2.7625 H   0  0  0  0  0  0
   14.5066   26.3779   -3.9665 H   0  0  0  0  0  0
   15.0849   24.1914   -3.1261 H   0  0  0  0  0  0
   16.7547   25.7050   -1.2570 H   0  0  0  0  0  0
   16.6016   24.0171   -1.3066 H   0  0  0  0  0  0
   14.4007   24.0431   -0.4205 H   0  0  0  0  0  0
   15.3707   25.0780    0.5479 H   0  0  0  0  0  0
   17.4076   24.2426   -3.6442 H   0  0  0  0  0  0
   16.4968   25.3145   -4.7343 H   0  0  0  0  0  0
   17.3945   25.9991   -3.3586 H   0  0  0  0  0  0
  1  2  1  0  0  0
  1 33  1  0  0  0
  2  4  2  0  0  0
  2  6  1  0  0  0
  3  5  2  0  0  0
  3  7  1  0  0  0
  3  8  1  0  0  0
  4  5  1  0  0  0
  4 34  1  0  0  0
  5 35  1  0  0  0
  6  7  2  0  0  0
  6 36  1  0  0  0
  7 37  1  0  0  0
  8  9  1  0  0  0
  8 12  2  0  0  0
  9 10  1  0  0  0
  9 38  1  0  0  0
 10 11  2  0  0  0
 10 16  1  0  0  0
 11 12  1  0  0  0
 11 13  1  0  0  0
 13 14  2  0  0  0
 13 39  1  0  0  0
 14 15  1  0  0  0
 14 40  1  0  0  0
 15 16  2  0  0  0
 15 17  1  0  0  0
 16 41  1  0  0  0
 17 18  1  0  0  0
 17 21  2  0  0  0
 18 19  1  0  0  0
 18 42  1  0  0  0
 19 20  2  0  0  0
 19 25  1  0  0  0
 20 21  1  0  0  0
 20 22  1  0  0  0
 22 23  2  0  0  0
 22 43  1  0  0  0
 23 24  1  0  0  0
 23 44  1  0  0  0
 24 25  2  0  0  0
 24 26  1  0  0  0
 25 45  1  0  0  0
 26 27  1  0  0  0
 26 31  1  0  0  0
 27 28  1  0  0  0
 27 46  1  0  0  0
 27 47  1  0  0  0
 28 29  1  0  0  0
 28 48  1  0  0  0
 28 49  1  0  0  0
 29 30  1  0  0  0
 29 32  1  0  0  0
 29 50  1  0  0  0
 30 31  1  0  0  0
 30 51  1  0  0  0
 30 52  1  0  0  0
 31 53  1  0  0  0
 31 54  1  0  0  0
 32 55  1  0  0  0
 32 56  1  0  0  0
 32 57  1  0  0  0
M  CHG  1  29   1
M  END
> <s_pdb_PDB_format_version>
3.0

> <b_ppw_prepared>
1

> <s_ppw_prepared_with_version>
2021-1

> <s_ppw_het_states>
eJztmUlu4zAQRa9iaG0QrIFTXyXIDYLe9crI3ZtF8VNELxuOYdnMIjWQ+qIoPVRJvm20/bp81D+6Xvzn9fLB3Uq32m3oNnabus3dlm7Jw4EiQZKgSRAlqBJkCboEYYIyQ5nHWqHMUGYoM5QZygxlhjJXZWrXCmWBsjRl82xjuM+rtupzdyOOvl5Cz1Y3HdncXW0TqO9e6nPrKM5vE7mnLed7vjnUB1qAc1qWeA4EgTlYpTmEczcnYsQCrLU5eQp4nNSyWKY5dhN4BJBuWZqDsWV2XYJNM0cxorsAjwAXZw6nKZAhbWvDQs0Zt9Ac8XOAFVh2F6iRd0Wr4G0jrs89OcpVcWODwIakHrhJbkPiY5XYdJ/IJfH39fL7z9fX/r89G2ejZtySk1MDdyCwqPlhanISw6bsMGS7jh0NdYliPj8ar1JQFhqPRqOEOKHhg04VpUg4aojoK4DyKjVkdV4PBYWcpxSm1qt2VOHotpR8nkqKpvODsirKD4DCMyj0mqAEVjoqSpL2VkI7JxR9WWg8CxpPVUPeAo2gOtWQVFq3BTaK7SUqSiENDydl3MRFyhOT8g7dVkl23G1/E6lhiePbVnScgqDbYies5wdlvZYsUP4DFHv62TjpZCRfBhnREWd6OBp377buhYZfaLwZGqIyui12kZRRQ9glTuPbVnCZKZ6flHt1W4uUdyMl5DyREkop+ArMjqPM3By/nbCVm38KzOf3X2pkiX4=

$$$$
