@<TRIPOS>MOLECULE
MOL
   75    79     1     0     0
SMALL
bcc


@<TRIPOS>ATOM
      1 C1          29.5090    36.3510    32.7420 ca         1 MOL      -0.079300
      2 C2          26.4000    32.6120    29.6630 ca         1 MOL      -0.048000
      3 C3          25.6350    31.6380    28.9990 ca         1 MOL      -0.139000
      4 C4          25.0220    30.5870    29.7060 ca         1 MOL      -0.038000
      5 C5          28.6760    31.6790    37.6330 cc         1 MOL      -0.086000
      6 C6          26.4130    32.1280    36.0530 cd         1 MOL      -0.109500
      7 C7          25.8750    29.5070    41.0790 c3         1 MOL       0.085000
      8 C8          29.3750    27.0190    40.0190 c3         1 MOL       0.113300
      9 C9          29.6840    27.7740    38.7190 c3         1 MOL      -0.132600
     10 C10         28.3950    27.1800    42.2280 c3         1 MOL       0.113300
     11 C11         28.5290    34.4960    34.0980 ca         1 MOL      -0.050000
     12 C12         27.7640    33.2670    34.3090 cc         1 MOL       0.060000
     13 C13         27.6630    32.5920    35.5960 cd         1 MOL      -0.057000
     14 C14         28.7960    32.3200    36.3870 cd         1 MOL      -0.109500
     15 C15         27.4200    31.2410    38.1110 cc         1 MOL      -0.113000
     16 C16         27.3370    30.6100    39.3920 c2         1 MOL       0.695300
     17 O1          28.3200    30.4620    40.1200 o          1 MOL      -0.696300
     18 N1          26.1460    30.1500    39.7920 ns         1 MOL      -0.560900
     19 C17         25.7700    27.9840    40.9120 c3         1 MOL      -0.127400
     20 C18         26.9830    27.3090    40.2360 c3         1 MOL       0.115800
     21 N2          28.3040    27.6590    40.8270 nx         1 MOL      -0.695400
     22 C19         29.5150    27.8740    43.0150 c3         1 MOL      -0.132600
     23 C20         26.2910    31.4530    37.2810 cc         1 MOL      -0.086000
     24 C21         27.1260    32.7200    33.2030 cc         1 MOL      -0.054200
     25 C22         27.2380    33.3740    32.0140 cd         1 MOL       0.095700
     26 C23         26.5370    32.5520    31.0720 ca         1 MOL      -0.153000
     27 C24         25.9710    31.4310    31.7670 ca         1 MOL       0.036800
     28 N3          26.3860    31.5640    33.0880 na         1 MOL      -0.167300
     29 C25         25.1920    30.4690    31.0990 ca         1 MOL      -0.094300
     30 C26         24.5560    29.3230    31.8560 c3         1 MOL      -0.062800
     31 N4          27.8730    34.5970    31.7680 na         1 MOL       0.031900
     32 C27         27.6920    35.2840    30.4630 c3         1 MOL      -0.025400
     33 C28         28.6610    35.1970    32.8050 ca         1 MOL       0.021700
     34 C29         29.8860    37.0990    31.4680 c3         1 MOL      -0.075800
     35 C30         30.0980    36.8750    33.9020 ca         1 MOL      -0.071000
     36 C31         29.8920    36.2820    35.1410 ca         1 MOL      -0.097000
     37 C32         29.1240    35.1200    35.2300 ca         1 MOL      -0.105000
     38 H1          26.8790    33.3990    29.0990 ha         1 MOL       0.150000
     39 H2          25.5090    31.6880    27.9270 ha         1 MOL       0.169000
     40 H3          24.4160    29.8640    29.1800 ha         1 MOL       0.167000
     41 H4          29.5520    31.5140    38.2420 ha         1 MOL       0.160500
     42 H5          25.5270    32.2880    35.4570 ha         1 MOL       0.161500
     43 H6          24.9410    29.8930    41.4880 h1         1 MOL       0.070700
     44 H7          26.6780    29.7410    41.7780 h1         1 MOL       0.070700
     45 H8          30.2830    26.9420    40.6170 hx         1 MOL       0.097950
     46 H9          29.0870    25.9950    39.7830 hx         1 MOL       0.097950
     47 H10         30.4740    27.2550    38.1760 hc         1 MOL       0.077367
     48 H11         28.7870    27.8170    38.1010 hc         1 MOL       0.077367
     49 H12         30.0110    28.7870    38.9550 hc         1 MOL       0.077367
     50 H13         28.5630    26.1030    42.2330 hx         1 MOL       0.097950
     51 H14         27.4420    27.3470    42.7300 hx         1 MOL       0.097950
     52 H15         29.7690    32.6130    36.0220 ha         1 MOL       0.161500
     53 H16         25.3430    30.2340    39.1860 hn         1 MOL       0.333500
     54 H17         24.8660    27.7440    40.3520 hc         1 MOL       0.088200
     55 H18         25.5990    27.5260    41.8860 hc         1 MOL       0.088200
     56 H19         26.9870    27.5540    39.1740 hx         1 MOL       0.100200
     57 H20         26.8530    26.2270    40.2590 hx         1 MOL       0.100200
     58 H21         28.4240    28.6620    40.8080 hn         1 MOL       0.476800
     59 H22         29.5380    27.4870    44.0340 hc         1 MOL       0.077367
     60 H23         30.4730    27.6810    42.5320 hc         1 MOL       0.077367
     61 H24         29.3310    28.9480    43.0390 hc         1 MOL       0.077367
     62 H25         25.3270    31.0880    37.6030 ha         1 MOL       0.160500
     63 H26         26.2320    30.9810    33.8980 hn         1 MOL       0.316700
     64 H27         24.8010    29.4060    32.9150 hc         1 MOL       0.059367
     65 H28         23.4740    29.3600    31.7300 hc         1 MOL       0.059367
     66 H29         24.9340    28.3770    31.4690 hc         1 MOL       0.059367
     67 H30         28.2600    36.2140    30.4600 h1         1 MOL       0.094700
     68 H31         28.0480    34.6390    29.6600 h1         1 MOL       0.094700
     69 H32         26.6350    35.5030    30.3110 h1         1 MOL       0.094700
     70 H33         30.5410    37.9340    31.7170 hc         1 MOL       0.067367
     71 H34         30.4040    36.4220    30.7880 hc         1 MOL       0.067367
     72 H35         28.9840    37.4760    30.9870 hc         1 MOL       0.067367
     73 H36         30.7230    37.7530    33.8410 ha         1 MOL       0.172000
     74 H37         30.3250    36.7200    36.0280 ha         1 MOL       0.170000
     75 H38         28.9900    34.6950    36.2140 ha         1 MOL       0.159000
@<TRIPOS>BOND
     1     1    33 ar  
     2     1    34 1   
     3     1    35 ar  
     4     2     3 ar  
     5     2    26 ar  
     6     2    38 1   
     7     3     4 ar  
     8     3    39 1   
     9     4    29 ar  
    10     4    40 1   
    11     5    14 2   
    12     5    15 1   
    13     5    41 1   
    14     6    13 1   
    15     6    23 2   
    16     6    42 1   
    17     7    18 1   
    18     7    19 1   
    19     7    43 1   
    20     7    44 1   
    21     8     9 1   
    22     8    21 1   
    23     8    45 1   
    24     8    46 1   
    25     9    47 1   
    26     9    48 1   
    27     9    49 1   
    28    10    21 1   
    29    10    22 1   
    30    10    50 1   
    31    10    51 1   
    32    11    12 1   
    33    11    33 ar  
    34    11    37 ar  
    35    12    13 2   
    36    12    24 1   
    37    13    14 1   
    38    14    52 1   
    39    15    16 2   
    40    15    23 1   
    41    16    17 1   
    42    16    18 1   
    43    18    53 1   
    44    19    20 1   
    45    19    54 1   
    46    19    55 1   
    47    20    21 1   
    48    20    56 1   
    49    20    57 1   
    50    21    58 1   
    51    22    59 1   
    52    22    60 1   
    53    22    61 1   
    54    23    62 1   
    55    24    25 2   
    56    24    28 1   
    57    25    26 1   
    58    25    31 1   
    59    26    27 ar  
    60    27    28 1   
    61    27    29 ar  
    62    28    63 1   
    63    29    30 1   
    64    30    64 1   
    65    30    65 1   
    66    30    66 1   
    67    31    32 1   
    68    31    33 1   
    69    32    67 1   
    70    32    68 1   
    71    32    69 1   
    72    34    70 1   
    73    34    71 1   
    74    34    72 1   
    75    35    36 ar  
    76    35    73 1   
    77    36    37 ar  
    78    36    74 1   
    79    37    75 1   
@<TRIPOS>SUBSTRUCTURE
     1 MOL         1 TEMP              0 ****  ****    0 ROOT
