
                    3D
 Schrodinger Suite 2021-1.
 75 79  0  0  1  0            999 V2000
   29.5090   36.3510   32.7420 C   0  0  0  0  0  0
   26.4000   32.6120   29.6630 C   0  0  0  0  0  0
   25.6350   31.6380   28.9990 C   0  0  0  0  0  0
   25.0220   30.5870   29.7060 C   0  0  0  0  0  0
   28.6760   31.6790   37.6330 C   0  0  0  0  0  0
   26.4130   32.1280   36.0530 C   0  0  0  0  0  0
   25.8750   29.5070   41.0790 C   0  0  0  0  0  0
   29.3750   27.0190   40.0190 C   0  0  0  0  0  0
   29.6840   27.7740   38.7190 C   0  0  0  0  0  0
   28.3950   27.1800   42.2280 C   0  0  0  0  0  0
   28.5290   34.4960   34.0980 C   0  0  0  0  0  0
   27.7640   33.2670   34.3090 C   0  0  0  0  0  0
   27.6630   32.5920   35.5960 C   0  0  0  0  0  0
   28.7960   32.3200   36.3870 C   0  0  0  0  0  0
   27.4200   31.2410   38.1110 C   0  0  0  0  0  0
   27.3370   30.6100   39.3920 C   0  0  0  0  0  0
   28.3200   30.4620   40.1200 O   0  0  0  0  0  0
   26.1460   30.1500   39.7920 N   0  0  0  0  0  0
   25.7700   27.9840   40.9120 C   0  0  0  0  0  0
   26.9830   27.3090   40.2360 C   0  0  0  0  0  0
   28.3040   27.6590   40.8270 N   0  3  0  0  0  0
   29.5150   27.8740   43.0150 C   0  0  0  0  0  0
   26.2910   31.4530   37.2810 C   0  0  0  0  0  0
   27.1260   32.7200   33.2030 C   0  0  0  0  0  0
   27.2380   33.3740   32.0140 C   0  0  0  0  0  0
   26.5370   32.5520   31.0720 C   0  0  0  0  0  0
   25.9710   31.4310   31.7670 C   0  0  0  0  0  0
   26.3860   31.5640   33.0880 N   0  0  0  0  0  0
   25.1920   30.4690   31.0990 C   0  0  0  0  0  0
   24.5560   29.3230   31.8560 C   0  0  0  0  0  0
   27.8730   34.5970   31.7680 N   0  3  0  0  0  0
   27.6920   35.2840   30.4630 C   0  0  0  0  0  0
   28.6610   35.1970   32.8050 C   0  0  0  0  0  0
   29.8860   37.0990   31.4680 C   0  0  0  0  0  0
   30.0980   36.8750   33.9020 C   0  0  0  0  0  0
   29.8920   36.2820   35.1410 C   0  0  0  0  0  0
   29.1240   35.1200   35.2300 C   0  0  0  0  0  0
   26.8786   33.3993   29.0995 H   0  0  0  0  0  0
   25.5093   31.6881   27.9275 H   0  0  0  0  0  0
   24.4162   29.8638   29.1804 H   0  0  0  0  0  0
   29.5525   31.5141   38.2421 H   0  0  0  0  0  0
   25.5267   32.2885   35.4571 H   0  0  0  0  0  0
   24.9410   29.8926   41.4878 H   0  0  0  0  0  0
   26.6781   29.7410   41.7779 H   0  0  0  0  0  0
   30.2828   26.9420   40.6174 H   0  0  0  0  0  0
   29.0871   25.9946   39.7829 H   0  0  0  0  0  0
   30.4740   27.2553   38.1760 H   0  0  0  0  0  0
   28.7870   27.8170   38.1012 H   0  0  0  0  0  0
   30.0108   28.7867   38.9552 H   0  0  0  0  0  0
   28.5627   26.1030   42.2325 H   0  0  0  0  0  0
   27.4422   27.3466   42.7305 H   0  0  0  0  0  0
   29.7693   32.6126   36.0218 H   0  0  0  0  0  0
   25.3426   30.2341   39.1857 H   0  0  0  0  0  0
   24.8660   27.7444   40.3520 H   0  0  0  0  0  0
   25.5992   27.5257   41.8861 H   0  0  0  0  0  0
   26.9867   27.5542   39.1739 H   0  0  0  0  0  0
   26.8528   26.2270   40.2590 H   0  0  0  0  0  0
   28.4242   28.6616   40.8077 H   0  0  0  0  0  0
   29.5378   27.4867   44.0336 H   0  0  0  0  0  0
   30.4728   27.6808   42.5318 H   0  0  0  0  0  0
   29.3310   28.9481   43.0393 H   0  0  0  0  0  0
   25.3269   31.0880   37.6031 H   0  0  0  0  0  0
   26.2315   30.9806   33.8979 H   0  0  0  0  0  0
   24.8013   29.4057   32.9148 H   0  0  0  0  0  0
   23.4739   29.3600   31.7303 H   0  0  0  0  0  0
   24.9341   28.3768   31.4688 H   0  0  0  0  0  0
   28.2598   36.2144   30.4598 H   0  0  0  0  0  0
   28.0480   34.6389   29.6597 H   0  0  0  0  0  0
   26.6352   35.5034   30.3108 H   0  0  0  0  0  0
   30.5409   37.9341   31.7167 H   0  0  0  0  0  0
   30.4035   36.4221   30.7882 H   0  0  0  0  0  0
   28.9836   37.4763   30.9870 H   0  0  0  0  0  0
   30.7233   37.7534   33.8406 H   0  0  0  0  0  0
   30.3250   36.7202   36.0281 H   0  0  0  0  0  0
   28.9901   34.6947   36.2136 H   0  0  0  0  0  0
  1 33  1  0  0  0
  1 34  1  0  0  0
  1 35  2  0  0  0
  2  3  2  0  0  0
  2 26  1  0  0  0
  2 38  1  0  0  0
  3  4  1  0  0  0
  3 39  1  0  0  0
  4 29  2  0  0  0
  4 40  1  0  0  0
  5 14  1  0  0  0
  5 15  2  0  0  0
  5 41  1  0  0  0
  6 13  1  0  0  0
  6 23  2  0  0  0
  6 42  1  0  0  0
  7 18  1  0  0  0
  7 19  1  0  0  0
  7 43  1  0  0  0
  7 44  1  0  0  0
  8  9  1  0  0  0
  8 21  1  0  0  0
  8 45  1  0  0  0
  8 46  1  0  0  0
  9 47  1  0  0  0
  9 48  1  0  0  0
  9 49  1  0  0  0
 10 21  1  0  0  0
 10 22  1  0  0  0
 10 50  1  0  0  0
 10 51  1  0  0  0
 11 12  2  0  0  0
 11 33  1  0  0  0
 11 37  1  0  0  0
 12 13  1  0  0  0
 12 24  1  0  0  0
 13 14  2  0  0  0
 14 52  1  0  0  0
 15 16  1  0  0  0
 15 23  1  0  0  0
 16 17  2  0  0  0
 16 18  1  0  0  0
 18 53  1  0  0  0
 19 20  1  0  0  0
 19 54  1  0  0  0
 19 55  1  0  0  0
 20 21  1  0  0  0
 20 56  1  0  0  0
 20 57  1  0  0  0
 21 58  1  0  0  0
 22 59  1  0  0  0
 22 60  1  0  0  0
 22 61  1  0  0  0
 23 62  1  0  0  0
 24 25  2  0  0  0
 24 28  1  0  0  0
 25 26  1  0  0  0
 25 31  1  0  0  0
 26 27  2  0  0  0
 27 28  1  0  0  0
 27 29  1  0  0  0
 28 63  1  0  0  0
 29 30  1  0  0  0
 30 64  1  0  0  0
 30 65  1  0  0  0
 30 66  1  0  0  0
 31 32  1  0  0  0
 31 33  2  0  0  0
 32 67  1  0  0  0
 32 68  1  0  0  0
 32 69  1  0  0  0
 34 70  1  0  0  0
 34 71  1  0  0  0
 34 72  1  0  0  0
 35 36  1  0  0  0
 35 73  1  0  0  0
 36 37  2  0  0  0
 36 74  1  0  0  0
 37 75  1  0  0  0
M  CHG  2  21   1  31   1
M  END
> <i_pdb_PDB_Model>
1

> <s_pdb_PDB_format_version>
3.0

> <b_ppw_prepared>
1

> <s_ppw_prepared_with_version>
2021-1

> <s_ppw_het_states>
eJxVk0GSwjAMBL+SyjlLWRIkC1+h8gNqb5wo/r4eR20MBzQSUVsehdds8226148tU9mX6e4ZI+M54yXjmnHL+JvxmtEKAqKBNJgG1KAaWINrgA2yQ/ZKtiYgO2SH7JAdskN2yA45IAfk6DZADsgBOSBHI0vJRXU0hvR50LXP0+H4SM1naThP16jZPH036tJQ1MZJVTvIOousM/Q1da0NsluodX0nTqKqJ9W+LqZkI/FhkPZ8v3McozubNq7aLtF7VN14bB3G1+xaurH9z+KF7X4qoadV1yHpK1XVOaeJ3rMdfhsvRXComsPHBJu1zeirWw9DXC9BOZVS6q+v+RL1v9XS2jWvyn5q+l6mv+fjcXzv+/sfjwy6+Q==

$$$$
