@<TRIPOS>MOLECULE
MOL
   54    56     1     0     0
SMALL
bcc


@<TRIPOS>ATOM
      1 O1           7.0980     4.9720     6.8730 o          1 MOL      -0.608100
      2 C1           5.9110     4.7000     6.7010 c          1 MOL       0.662100
      3 C2           4.8120     5.6950     7.0800 c3         1 MOL      -0.170100
      4 N1           5.4780     3.5640     6.1400 ns         1 MOL      -0.580900
      5 C3           4.2320     2.9040     6.5570 c3         1 MOL       0.138900
      6 C4           4.4140     1.5260     6.5100 cc         1 MOL      -0.022200
      7 C5           5.7850     1.4170     6.7160 cd         1 MOL      -0.238200
      8 C6           3.1280     3.3010     5.5900 c3         1 MOL      -0.076400
      9 C7           1.7660     3.1120     6.2390 c3         1 MOL      -0.038100
     10 C8           1.3530     1.7970     6.0740 ca         1 MOL      -0.016300
     11 C9          -0.0350     1.7220     6.1140 ca         1 MOL      -0.224000
     12 C10         -0.6580     0.4840     6.2110 ca         1 MOL       0.141100
     13 C11          0.1060    -0.6720     6.2910 ca         1 MOL      -0.001900
     14 C12          1.4910    -0.5910     6.2100 ca         1 MOL       0.166100
     15 O2           2.1980    -1.6400     6.7080 os         1 MOL      -0.323900
     16 C13          2.1320    -1.6260     8.1370 c3         1 MOL       0.122700
     17 O3          -0.4780    -1.8400     5.9110 os         1 MOL      -0.331900
     18 C14         -1.3880    -2.2840     6.9200 c3         1 MOL       0.112700
     19 O4          -2.0100     0.3500     6.2740 os         1 MOL      -0.318900
     20 C15         -2.5020     1.1070     7.3820 c3         1 MOL       0.111700
     21 C16          2.1270     0.6420     6.0910 ca         1 MOL      -0.119800
     22 C17          3.5170     0.5560     6.0840 cc         1 MOL      -0.022200
     23 C18          3.8020    -0.5790     5.3340 cd         1 MOL      -0.069000
     24 C19          5.0210    -1.2440     5.2680 cd         1 MOL      -0.154000
     25 C20          6.2730    -0.7900     5.6680 cc         1 MOL       0.029900
     26 C21          6.6340     0.4140     6.2640 c          1 MOL       0.562500
     27 O5           7.8320     0.6150     6.4470 o          1 MOL      -0.530100
     28 O6           7.3300    -1.6250     5.4900 os         1 MOL      -0.329900
     29 C22          7.5670    -2.3450     6.7020 c3         1 MOL       0.113700
     30 H1           3.8370     5.2650     6.8500 hc         1 MOL       0.070033
     31 H2           4.8700     5.9120     8.1460 hc         1 MOL       0.070033
     32 H3           4.9450     6.6170     6.5140 hc         1 MOL       0.070033
     33 H4           6.0130     3.1290     5.4020 hn         1 MOL       0.314500
     34 H5           3.9690     3.2110     7.5690 h1         1 MOL       0.081700
     35 H6           6.3070     2.1710     7.2870 ha         1 MOL       0.158000
     36 H7           3.1920     2.6840     4.6930 hc         1 MOL       0.054200
     37 H8           3.2530     4.3460     5.3060 hc         1 MOL       0.054200
     38 H9           1.0440     3.7810     5.7700 hc         1 MOL       0.058700
     39 H10          1.8360     3.3400     7.3030 hc         1 MOL       0.058700
     40 H11         -0.6260     2.6250     6.0700 ha         1 MOL       0.145000
     41 H12          2.6990    -2.4670     8.5360 h1         1 MOL       0.050700
     42 H13          2.5540    -0.6940     8.5120 h1         1 MOL       0.050700
     43 H14          1.0920    -1.7060     8.4540 h1         1 MOL       0.050700
     44 H15         -1.8510    -3.2200     6.6060 h1         1 MOL       0.044700
     45 H16         -0.8480    -2.4410     7.8540 h1         1 MOL       0.044700
     46 H17         -2.1610    -1.5300     7.0710 h1         1 MOL       0.044700
     47 H18         -3.5860     1.0050     7.4400 h1         1 MOL       0.048033
     48 H19         -2.0530     0.7370     8.3040 h1         1 MOL       0.048033
     49 H20         -2.2430     2.1570     7.2490 h1         1 MOL       0.048033
     50 H21          3.0340    -1.0300     4.7230 ha         1 MOL       0.139000
     51 H22          5.0690    -2.2450     4.8640 ha         1 MOL       0.152000
     52 H23          8.4140    -3.0170     6.5660 h1         1 MOL       0.052367
     53 H24          7.7870    -1.6420     7.5060 h1         1 MOL       0.052367
     54 H25          6.6810    -2.9250     6.9600 h1         1 MOL       0.052367
@<TRIPOS>BOND
     1     1     2 2   
     2     2     3 1   
     3     2     4 1   
     4     3    30 1   
     5     3    31 1   
     6     3    32 1   
     7     4     5 1   
     8     4    33 1   
     9     5     6 1   
    10     5     8 1   
    11     5    34 1   
    12     6     7 2   
    13     6    22 1   
    14     7    26 1   
    15     7    35 1   
    16     8     9 1   
    17     8    36 1   
    18     8    37 1   
    19     9    10 1   
    20     9    38 1   
    21     9    39 1   
    22    10    11 ar  
    23    10    21 ar  
    24    11    12 ar  
    25    11    40 1   
    26    12    13 ar  
    27    12    19 1   
    28    13    14 ar  
    29    13    17 1   
    30    14    15 1   
    31    14    21 ar  
    32    15    16 1   
    33    16    41 1   
    34    16    42 1   
    35    16    43 1   
    36    17    18 1   
    37    18    44 1   
    38    18    45 1   
    39    18    46 1   
    40    19    20 1   
    41    20    47 1   
    42    20    48 1   
    43    20    49 1   
    44    21    22 1   
    45    22    23 2   
    46    23    24 1   
    47    23    50 1   
    48    24    25 2   
    49    24    51 1   
    50    25    26 1   
    51    25    28 1   
    52    26    27 2   
    53    28    29 1   
    54    29    52 1   
    55    29    53 1   
    56    29    54 1   
@<TRIPOS>SUBSTRUCTURE
     1 MOL         1 TEMP              0 ****  ****    0 ROOT
