
                    3D
 Schrodinger Suite 2021-1.
 54 56  0  0  1  0            999 V2000
    7.0980    4.9720    6.8730 O   0  0  0  0  0  0
    5.9110    4.7000    6.7010 C   0  0  0  0  0  0
    4.8120    5.6950    7.0800 C   0  0  0  0  0  0
    5.4780    3.5640    6.1400 N   0  0  0  0  0  0
    4.2320    2.9040    6.5570 C   0  0  2  0  0  0
    4.4140    1.5260    6.5100 C   0  0  0  0  0  0
    5.7850    1.4170    6.7160 C   0  0  0  0  0  0
    3.1280    3.3010    5.5900 C   0  0  0  0  0  0
    1.7660    3.1120    6.2390 C   0  0  0  0  0  0
    1.3530    1.7970    6.0740 C   0  0  0  0  0  0
   -0.0350    1.7220    6.1140 C   0  0  0  0  0  0
   -0.6580    0.4840    6.2110 C   0  0  0  0  0  0
    0.1060   -0.6720    6.2910 C   0  0  0  0  0  0
    1.4910   -0.5910    6.2100 C   0  0  0  0  0  0
    2.1980   -1.6400    6.7080 O   0  0  0  0  0  0
    2.1320   -1.6260    8.1370 C   0  0  0  0  0  0
   -0.4780   -1.8400    5.9110 O   0  0  0  0  0  0
   -1.3880   -2.2840    6.9200 C   0  0  0  0  0  0
   -2.0100    0.3500    6.2740 O   0  0  0  0  0  0
   -2.5020    1.1070    7.3820 C   0  0  0  0  0  0
    2.1270    0.6420    6.0910 C   0  0  0  0  0  0
    3.5170    0.5560    6.0840 C   0  0  0  0  0  0
    3.8020   -0.5790    5.3340 C   0  0  0  0  0  0
    5.0210   -1.2440    5.2680 C   0  0  0  0  0  0
    6.2730   -0.7900    5.6680 C   0  0  0  0  0  0
    6.6340    0.4140    6.2640 C   0  0  0  0  0  0
    7.8320    0.6150    6.4470 O   0  0  0  0  0  0
    7.3300   -1.6250    5.4900 O   0  0  0  0  0  0
    7.5670   -2.3450    6.7020 C   0  0  0  0  0  0
    3.8371    5.2654    6.8497 H   0  0  0  0  0  0
    4.8700    5.9123    8.1465 H   0  0  0  0  0  0
    4.9450    6.6170    6.5141 H   0  0  0  0  0  0
    6.0131    3.1294    5.4018 H   0  0  0  0  0  0
    3.9687    3.2107    7.5693 H   0  0  0  0  0  0
    6.3069    2.1707    7.2870 H   0  0  0  0  0  0
    3.1916    2.6844    4.6934 H   0  0  0  0  0  0
    3.2528    4.3458    5.3057 H   0  0  0  0  0  0
    1.0443    3.7808    5.7699 H   0  0  0  0  0  0
    1.8359    3.3399    7.3026 H   0  0  0  0  0  0
   -0.6261    2.6248    6.0697 H   0  0  0  0  0  0
    2.6990   -2.4672    8.5357 H   0  0  0  0  0  0
    2.5544   -0.6936    8.5116 H   0  0  0  0  0  0
    1.0922   -1.7065    8.4540 H   0  0  0  0  0  0
   -1.8505   -3.2199    6.6065 H   0  0  0  0  0  0
   -0.8477   -2.4412    7.8535 H   0  0  0  0  0  0
   -2.1606   -1.5300    7.0705 H   0  0  0  0  0  0
   -3.5857    1.0050    7.4398 H   0  0  0  0  0  0
   -2.0531    0.7367    8.3037 H   0  0  0  0  0  0
   -2.2430    2.1574    7.2487 H   0  0  0  0  0  0
    3.0337   -1.0297    4.7233 H   0  0  0  0  0  0
    5.0691   -2.2446    4.8645 H   0  0  0  0  0  0
    8.4142   -3.0172    6.5662 H   0  0  0  0  0  0
    7.7867   -1.6422    7.5057 H   0  0  0  0  0  0
    6.6811   -2.9254    6.9596 H   0  0  0  0  0  0
  1  2  2  0  0  0
  2  3  1  0  0  0
  2  4  1  0  0  0
  3 30  1  0  0  0
  3 31  1  0  0  0
  3 32  1  0  0  0
  4  5  1  0  0  0
  4 33  1  0  0  0
  5  6  1  0  0  0
  5  8  1  0  0  0
  5 34  1  0  0  0
  6  7  2  0  0  0
  6 22  1  0  0  0
  7 26  1  0  0  0
  7 35  1  0  0  0
  8  9  1  0  0  0
  8 36  1  0  0  0
  8 37  1  0  0  0
  9 10  1  0  0  0
  9 38  1  0  0  0
  9 39  1  0  0  0
 10 11  2  0  0  0
 10 21  1  0  0  0
 11 12  1  0  0  0
 11 40  1  0  0  0
 12 13  2  0  0  0
 12 19  1  0  0  0
 13 14  1  0  0  0
 13 17  1  0  0  0
 14 15  1  0  0  0
 14 21  2  0  0  0
 15 16  1  0  0  0
 16 41  1  0  0  0
 16 42  1  0  0  0
 16 43  1  0  0  0
 17 18  1  0  0  0
 18 44  1  0  0  0
 18 45  1  0  0  0
 18 46  1  0  0  0
 19 20  1  0  0  0
 20 47  1  0  0  0
 20 48  1  0  0  0
 20 49  1  0  0  0
 21 22  1  0  0  0
 22 23  2  0  0  0
 23 24  1  0  0  0
 23 50  1  0  0  0
 24 25  2  0  0  0
 24 51  1  0  0  0
 25 26  1  0  0  0
 25 28  1  0  0  0
 26 27  2  0  0  0
 28 29  1  0  0  0
 29 52  1  0  0  0
 29 53  1  0  0  0
 29 54  1  0  0  0
M  END
> <i_pdb_PDB_Model>
1

> <s_pdb_PDB_format_version>
3.0

> <b_ppw_prepared>
1

> <s_ppw_prepared_with_version>
2021-1

> <s_ppw_het_states>
eJxNkjEOwlAMQ69SdS6odlsKXAX1BoiNCXF34o9dYMB2FN5PIl49+mt3qw+GbtyG7kbrZJ2ti/VkXa1n68WKMSZEBIkwEShCRbAIFwEjZIbMfdaQGTJDZsgMmSEzZDaynLYvFn2AosF2ti1dbEtPP3u2rdJqQllNBp+J6a7Wi610tG8G/q2C9kNOiJCamdKmEJiqmP/DmqDq8he4v6NqBmv9WURYZrbWnwlkmAmayaMyujhz+n3nFoJWlbmSqmwrVDqMx3ry1U9T/R0V3kP3eN7v3+9te38ADAOOpA==

$$$$
