
                    3D
 Schrodinger Suite 2021-1.
 58 59  0  0  1  0            999 V2000
   14.5840   23.9330    1.2930 N   0  0  0  0  0  0
   13.8630   25.9510    0.6500 N   0  3  0  0  0  0
   13.7960   24.9180    1.3790 C   0  0  0  0  0  0
   12.8490   24.9540    2.2280 N   0  0  0  0  0  0
   12.5340   23.9450    3.1630 C   0  0  0  0  0  0
   11.4450   24.5340    4.0710 C   0  0  0  0  0  0
   11.0870   25.7190    4.0110 O   0  0  0  0  0  0
   11.0130   23.6070    4.8860 N   0  0  0  0  0  0
   10.0010   23.8500    5.7880 C   0  0  0  0  0  0
    8.2540   24.5530    6.9020 N   0  0  0  0  0  0
    8.7130   23.4460    7.4590 C   0  0  0  0  0  0
    9.0590   24.8240    5.8340 C   0  0  0  0  0  0
    7.1270   25.4090    7.2800 C   0  0  0  0  0  0
    9.7870   22.9590    6.7820 N   0  0  0  0  0  0
    8.0570   22.8730    8.6320 C   0  0  0  0  0  0
    7.0050   23.2890    9.0900 O   0  0  0  0  0  0
    8.6990   21.8170    9.0960 N   0  0  0  0  0  0
    8.1220   21.1530   10.2570 C   0  0  0  0  0  0
    8.9100   20.4900   11.1910 C   0  0  0  0  0  0
    8.0090   19.9720   12.1530 C   0  0  0  0  0  0
    6.8250   21.0870   10.6410 C   0  0  0  0  0  0
    6.7380   20.3800   11.7950 N   0  0  0  0  0  0
    5.4190   20.2270   12.3190 C   0  0  0  0  0  0
    8.4300   19.2220   13.3200 C   0  0  0  0  0  0
    7.6940   18.7860   14.2210 O   0  0  0  0  0  0
    9.7590   19.0140   13.3930 N   0  0  0  0  0  0
   10.4240   18.3340   14.5130 C   0  0  0  0  0  0
    9.6960   17.2350   15.1760 C   0  0  0  0  0  0
   10.5850   16.6070   16.2700 C   0  0  0  0  0  0
   10.0640   16.2810   17.4440 N   0  3  0  0  0  0
   11.8420   16.4340   15.9850 N   0  0  0  0  0  0
   14.4709   23.1405    1.9089 H   0  0  0  0  0  0
   15.3266   23.9386    0.6084 H   0  0  0  0  0  0
   13.1983   26.7011    0.7748 H   0  0  0  0  0  0
   14.5812   26.0249   -0.0563 H   0  0  0  0  0  0
   12.2413   25.7594    2.2728 H   0  0  0  0  0  0
   13.4172   23.7152    3.7591 H   0  0  0  0  0  0
   12.1369   23.0762    2.6381 H   0  0  0  0  0  0
   11.4232   22.6843    4.8642 H   0  0  0  0  0  0
    9.0613   25.6128    5.0963 H   0  0  0  0  0  0
    7.0510   26.2408    6.5797 H   0  0  0  0  0  0
    6.2048   24.8285    7.2552 H   0  0  0  0  0  0
    7.2854   25.7956    8.2868 H   0  0  0  0  0  0
    9.5487   21.5053    8.6477 H   0  0  0  0  0  0
    9.9829   20.4626   11.0702 H   0  0  0  0  0  0
    6.0602   21.5610   10.0437 H   0  0  0  0  0  0
    4.7086   20.7423   11.6725 H   0  0  0  0  0  0
    5.1661   19.1677   12.3643 H   0  0  0  0  0  0
    5.3737   20.6540   13.3209 H   0  0  0  0  0  0
   10.3618   19.3332   12.6481 H   0  0  0  0  0  0
   10.7125   19.0736   15.2599 H   0  0  0  0  0  0
   11.3974   17.9706   14.1835 H   0  0  0  0  0  0
    9.4359   16.4752   14.4390 H   0  0  0  0  0  0
    8.7841   17.6246   15.6285 H   0  0  0  0  0  0
   10.6474   15.8701   18.1588 H   0  0  0  0  0  0
    9.0835   16.4434   17.6240 H   0  0  0  0  0  0
   12.4635   16.0265   16.6690 H   0  0  0  0  0  0
   12.1968   16.7071   15.0797 H   0  0  0  0  0  0
  1  3  1  0  0  0
  1 32  1  0  0  0
  1 33  1  0  0  0
  2  3  2  0  0  0
  2 34  1  0  0  0
  2 35  1  0  0  0
  3  4  1  0  0  0
  4  5  1  0  0  0
  4 36  1  0  0  0
  5  6  1  0  0  0
  5 37  1  0  0  0
  5 38  1  0  0  0
  6  7  2  0  0  0
  6  8  1  0  0  0
  8  9  1  0  0  0
  8 39  1  0  0  0
  9 12  2  0  0  0
  9 14  1  0  0  0
 10 11  1  0  0  0
 10 12  1  0  0  0
 10 13  1  0  0  0
 11 14  2  0  0  0
 11 15  1  0  0  0
 12 40  1  0  0  0
 13 41  1  0  0  0
 13 42  1  0  0  0
 13 43  1  0  0  0
 15 16  2  0  0  0
 15 17  1  0  0  0
 17 18  1  0  0  0
 17 44  1  0  0  0
 18 19  1  0  0  0
 18 21  2  0  0  0
 19 20  2  0  0  0
 19 45  1  0  0  0
 20 22  1  0  0  0
 20 24  1  0  0  0
 21 22  1  0  0  0
 21 46  1  0  0  0
 22 23  1  0  0  0
 23 47  1  0  0  0
 23 48  1  0  0  0
 23 49  1  0  0  0
 24 25  2  0  0  0
 24 26  1  0  0  0
 26 27  1  0  0  0
 26 50  1  0  0  0
 27 28  1  0  0  0
 27 51  1  0  0  0
 27 52  1  0  0  0
 28 29  1  0  0  0
 28 53  1  0  0  0
 28 54  1  0  0  0
 29 30  2  0  0  0
 29 31  1  0  0  0
 30 55  1  0  0  0
 30 56  1  0  0  0
 31 57  1  0  0  0
 31 58  1  0  0  0
M  CHG  2   2   1  30   1
M  END
> <s_pdb_PDB_format_version>
3.0

> <b_ppw_prepared>
1

> <s_ppw_prepared_with_version>
2021-1

> <s_ppw_het_states>
eJxNkk2OwjAUg69SZd0Z5Tnp31wF9QZodrNC3H2eg11gge00fHItHiXKz3TLT8xTPefphnkKalPu0kW6SjfpLj2kUW1MDNiYGYaGqWFsmBsGh8kwGVdXk2EyTIbJMBkmw2SY3KpfepDpuEfTKYaFVuk6TV1kU1fZ1E130+46TT1kqdANeuO4Gyd7B3wGdxlXun4/gksMs/oJw+YnNK4yzPERuCY8NDeGx4YbjOCi4/71hK9y7cReiwEMXoUGrkMD16GB69C0qwHDGCTTV/3O80eJnn/XVyhtT5+2tixRelMivvRDqeI5T79/9/vr+zyf//PLnKw=

$$$$
