@<TRIPOS>MOLECULE
MOL
   58    59     1     0     0
SMALL
bcc


@<TRIPOS>ATOM
      1 N1          14.5840    23.9330     1.2930 nv         1 MOL      -0.518600
      2 N2          13.8630    25.9510     0.6500 nv         1 MOL      -0.502700
      3 C1          13.7960    24.9180     1.3790 cz         1 MOL       0.531300
      4 N3          12.8490    24.9540     2.2280 nu         1 MOL      -0.382200
      5 C2          12.5340    23.9450     3.1630 c3         1 MOL      -0.058700
      6 C3          11.4450    24.5340     4.0710 c          1 MOL       0.659100
      7 O1          11.0870    25.7190     4.0110 o          1 MOL      -0.592100
      8 N4          11.0130    23.6070     4.8860 ns         1 MOL      -0.490400
      9 C4          10.0010    23.8500     5.7880 cc         1 MOL       0.367200
     10 N5           8.2540    24.5530     6.9020 na         1 MOL      -0.130900
     11 C5           8.7130    23.4460     7.4590 cd         1 MOL       0.354000
     12 C6           9.0590    24.8240     5.8340 cd         1 MOL      -0.205600
     13 C7           7.1270    25.4090     7.2800 c3         1 MOL       0.011600
     14 N6           9.7870    22.9590     6.7820 nc         1 MOL      -0.666000
     15 C8           8.0570    22.8730     8.6320 c          1 MOL       0.610600
     16 O2           7.0050    23.2890     9.0900 o          1 MOL      -0.603100
     17 N7           8.6990    21.8170     9.0960 ns         1 MOL      -0.419100
     18 C9           8.1220    21.1530    10.2570 cc         1 MOL      -0.035400
     19 C10          8.9100    20.4900    11.1910 cc         1 MOL      -0.156000
     20 C11          8.0090    19.9720    12.1530 cd         1 MOL      -0.214900
     21 C12          6.8250    21.0870    10.6410 cd         1 MOL      -0.106300
     22 N8           6.7380    20.3800    11.7950 na         1 MOL       0.003900
     23 C13          5.4190    20.2270    12.3190 c3         1 MOL       0.013600
     24 C14          8.4300    19.2220    13.3200 c          1 MOL       0.733700
     25 O3           7.6940    18.7860    14.2210 o          1 MOL      -0.690100
     26 N9           9.7590    19.0140    13.3930 ns         1 MOL      -0.573900
     27 C15         10.4240    18.3340    14.5130 c3         1 MOL       0.110000
     28 C16          9.6960    17.2350    15.1760 c3         1 MOL      -0.192700
     29 C17         10.5850    16.6070    16.2700 c2         1 MOL       0.448800
     30 N10         10.0640    16.2810    17.4440 nv         1 MOL      -0.467100
     31 N11         11.8420    16.4340    15.9850 nv         1 MOL      -0.451200
     32 H1          14.4710    23.1400     1.9090 hn         1 MOL       0.329700
     33 H2          15.3270    23.9390     0.6080 hn         1 MOL       0.329700
     34 H3          13.1980    26.7010     0.7750 hn         1 MOL       0.329700
     35 H4          14.5810    26.0250    -0.0560 hn         1 MOL       0.329700
     36 H5          12.2410    25.7590     2.2730 hn         1 MOL       0.352700
     37 H6          13.4170    23.7150     3.7590 h1         1 MOL       0.086700
     38 H7          12.1370    23.0760     2.6380 h1         1 MOL       0.086700
     39 H8          11.4230    22.6840     4.8640 hn         1 MOL       0.342500
     40 H9           9.0610    25.6130     5.0960 h4         1 MOL       0.220000
     41 H10          7.0510    26.2410     6.5800 h1         1 MOL       0.079700
     42 H11          6.2050    24.8280     7.2550 h1         1 MOL       0.079700
     43 H12          7.2850    25.7960     8.2870 h1         1 MOL       0.079700
     44 H13          9.5490    21.5050     8.6480 hn         1 MOL       0.346500
     45 H14          9.9830    20.4630    11.0700 ha         1 MOL       0.153000
     46 H15          6.0600    21.5610    10.0440 h4         1 MOL       0.219000
     47 H16          4.7090    20.7420    11.6720 h1         1 MOL       0.071700
     48 H17          5.1660    19.1680    12.3640 h1         1 MOL       0.071700
     49 H18          5.3740    20.6540    13.3210 h1         1 MOL       0.071700
     50 H19         10.3620    19.3330    12.6480 hn         1 MOL       0.337500
     51 H20         10.7130    19.0740    15.2600 h1         1 MOL       0.072700
     52 H21         11.3970    17.9710    14.1840 h1         1 MOL       0.072700
     53 H22          9.4360    16.4750    14.4390 hc         1 MOL       0.109200
     54 H23          8.7840    17.6250    15.6290 hc         1 MOL       0.109200
     55 H24         10.6470    15.8700    18.1590 hn         1 MOL       0.333450
     56 H25          9.0840    16.4430    17.6240 hn         1 MOL       0.333450
     57 H26         12.4630    16.0260    16.6690 hn         1 MOL       0.333450
     58 H27         12.1970    16.7070    15.0800 hn         1 MOL       0.333450
@<TRIPOS>BOND
     1     1     3 2   
     2     1    32 1   
     3     1    33 1   
     4     2     3 1   
     5     2    34 1   
     6     2    35 1   
     7     3     4 1   
     8     4     5 1   
     9     4    36 1   
    10     5     6 1   
    11     5    37 1   
    12     5    38 1   
    13     6     7 2   
    14     6     8 1   
    15     8     9 1   
    16     8    39 1   
    17     9    12 2   
    18     9    14 1   
    19    10    11 1   
    20    10    12 1   
    21    10    13 1   
    22    11    14 2   
    23    11    15 1   
    24    12    40 1   
    25    13    41 1   
    26    13    42 1   
    27    13    43 1   
    28    15    16 2   
    29    15    17 1   
    30    17    18 1   
    31    17    44 1   
    32    18    19 1   
    33    18    21 2   
    34    19    20 2   
    35    19    45 1   
    36    20    22 1   
    37    20    24 1   
    38    21    22 1   
    39    21    46 1   
    40    22    23 1   
    41    23    47 1   
    42    23    48 1   
    43    23    49 1   
    44    24    25 2   
    45    24    26 1   
    46    26    27 1   
    47    26    50 1   
    48    27    28 1   
    49    27    51 1   
    50    27    52 1   
    51    28    29 1   
    52    28    53 1   
    53    28    54 1   
    54    29    30 2   
    55    29    31 1   
    56    30    55 1   
    57    30    56 1   
    58    31    57 1   
    59    31    58 1   
@<TRIPOS>SUBSTRUCTURE
     1 MOL         1 TEMP              0 ****  ****    0 ROOT
